*SPEF "ieee 1481-1999"
*DESIGN "alu"
*DATE "11:11:11 Fri 11 11, 1111"
*VENDOR "OpenRCX"
*PROGRAM "Parallel Extraction"
*VERSION "1.0"
*DESIGN_FLOW "NAME_SCOPE LOCAL" "PIN_CAP NONE"
*DIVIDER /
*DELIMITER :
*BUS_DELIMITER []
*T_UNIT 1 NS
*C_UNIT 1 PF
*R_UNIT 1 OHM
*L_UNIT 1 HENRY

*NAME_MAP
*3 a[0]
*4 a[1]
*5 a[2]
*6 a[3]
*7 b[0]
*8 b[1]
*9 b[2]
*10 b[3]
*11 carry
*12 out[0]
*13 out[1]
*14 out[2]
*15 out[3]
*16 sel[0]
*17 sel[1]
*18 sel[2]
*19 _000_
*20 _001_
*21 _002_
*22 _003_
*23 _004_
*24 _005_
*25 _006_
*26 _007_
*27 _008_
*28 _009_
*29 _010_
*30 _011_
*31 _012_
*32 _013_
*33 _014_
*34 _015_
*35 _016_
*36 _017_
*37 _018_
*38 _019_
*39 _020_
*40 _021_
*41 _022_
*42 _023_
*43 _024_
*44 _025_
*45 _026_
*46 _027_
*47 _028_
*48 _029_
*49 _030_
*50 _031_
*51 _032_
*52 _033_
*53 _034_
*54 _035_
*55 _036_
*56 _037_
*57 _038_
*58 _039_
*59 _040_
*60 _041_
*61 _042_
*62 _043_
*63 _044_
*64 _045_
*65 _046_
*66 _047_
*67 _048_
*68 _049_
*69 _050_
*70 _051_
*71 _052_
*72 net1
*73 net10
*74 net11
*75 net12
*76 net13
*77 net14
*78 net15
*79 net16
*80 net2
*81 net3
*82 net4
*83 net5
*84 net6
*85 net7
*86 net8
*87 net9
*88 FILLER_0_0_15
*89 FILLER_0_0_20
*90 FILLER_0_0_29
*91 FILLER_0_0_41
*92 FILLER_0_0_49
*93 FILLER_0_0_55
*94 FILLER_0_0_57
*95 FILLER_0_0_69
*96 FILLER_0_0_7
*97 FILLER_0_0_83
*98 FILLER_0_10_16
*99 FILLER_0_10_29
*100 FILLER_0_10_37
*101 FILLER_0_10_52
*102 FILLER_0_10_56
*103 FILLER_0_10_72
*104 FILLER_0_11_3
*105 FILLER_0_11_30
*106 FILLER_0_11_34
*107 FILLER_0_11_38
*108 FILLER_0_11_45
*109 FILLER_0_11_53
*110 FILLER_0_11_57
*111 FILLER_0_11_69
*112 FILLER_0_11_81
*113 FILLER_0_12_13
*114 FILLER_0_12_29
*115 FILLER_0_12_37
*116 FILLER_0_12_43
*117 FILLER_0_12_57
*118 FILLER_0_12_69
*119 FILLER_0_12_81
*120 FILLER_0_13_11
*121 FILLER_0_13_23
*122 FILLER_0_13_27
*123 FILLER_0_13_29
*124 FILLER_0_13_37
*125 FILLER_0_13_41
*126 FILLER_0_13_53
*127 FILLER_0_13_57
*128 FILLER_0_13_65
*129 FILLER_0_13_72
*130 FILLER_0_1_21
*131 FILLER_0_1_52
*132 FILLER_0_1_57
*133 FILLER_0_1_64
*134 FILLER_0_1_69
*135 FILLER_0_1_81
*136 FILLER_0_1_9
*137 FILLER_0_2_15
*138 FILLER_0_2_27
*139 FILLER_0_2_29
*140 FILLER_0_2_3
*141 FILLER_0_2_41
*142 FILLER_0_2_57
*143 FILLER_0_2_69
*144 FILLER_0_3_15
*145 FILLER_0_3_28
*146 FILLER_0_3_3
*147 FILLER_0_3_40
*148 FILLER_0_3_62
*149 FILLER_0_3_73
*150 FILLER_0_3_81
*151 FILLER_0_4_16
*152 FILLER_0_4_3
*153 FILLER_0_4_34
*154 FILLER_0_4_46
*155 FILLER_0_4_58
*156 FILLER_0_4_70
*157 FILLER_0_4_82
*158 FILLER_0_5_24
*159 FILLER_0_5_36
*160 FILLER_0_5_46
*161 FILLER_0_5_54
*162 FILLER_0_5_57
*163 FILLER_0_5_69
*164 FILLER_0_5_81
*165 FILLER_0_5_9
*166 FILLER_0_6_10
*167 FILLER_0_6_22
*168 FILLER_0_6_29
*169 FILLER_0_6_3
*170 FILLER_0_6_41
*171 FILLER_0_6_45
*172 FILLER_0_6_62
*173 FILLER_0_6_73
*174 FILLER_0_6_82
*175 FILLER_0_7_22
*176 FILLER_0_7_3
*177 FILLER_0_7_43
*178 FILLER_0_7_55
*179 FILLER_0_7_60
*180 FILLER_0_7_71
*181 FILLER_0_7_79
*182 FILLER_0_7_83
*183 FILLER_0_8_15
*184 FILLER_0_8_27
*185 FILLER_0_8_29
*186 FILLER_0_8_3
*187 FILLER_0_8_41
*188 FILLER_0_8_53
*189 FILLER_0_8_65
*190 FILLER_0_8_73
*191 FILLER_0_8_80
*192 FILLER_0_9_15
*193 FILLER_0_9_22
*194 FILLER_0_9_3
*195 FILLER_0_9_34
*196 FILLER_0_9_46
*197 FILLER_0_9_54
*198 FILLER_0_9_63
*199 FILLER_0_9_75
*200 PHY_0
*201 PHY_1
*202 PHY_10
*203 PHY_11
*204 PHY_12
*205 PHY_13
*206 PHY_14
*207 PHY_15
*208 PHY_16
*209 PHY_17
*210 PHY_18
*211 PHY_19
*212 PHY_2
*213 PHY_20
*214 PHY_21
*215 PHY_22
*216 PHY_23
*217 PHY_24
*218 PHY_25
*219 PHY_26
*220 PHY_27
*221 PHY_3
*222 PHY_4
*223 PHY_5
*224 PHY_6
*225 PHY_7
*226 PHY_8
*227 PHY_9
*228 TAP_28
*229 TAP_29
*230 TAP_30
*231 TAP_31
*232 TAP_32
*233 TAP_33
*234 TAP_34
*235 TAP_35
*236 TAP_36
*237 TAP_37
*238 TAP_38
*239 TAP_39
*240 TAP_40
*241 TAP_41
*242 TAP_42
*243 TAP_43
*244 _053_
*245 _054_
*246 _055_
*247 _056_
*248 _057_
*249 _058_
*250 _059_
*251 _060_
*252 _061_
*253 _062_
*254 _063_
*255 _064_
*256 _065_
*257 _066_
*258 _067_
*259 _068_
*260 _069_
*261 _070_
*262 _071_
*263 _072_
*264 _073_
*265 _074_
*266 _075_
*267 _076_
*268 _077_
*269 _078_
*270 _079_
*271 _080_
*272 _081_
*273 _082_
*274 _083_
*275 _084_
*276 _085_
*277 _086_
*278 _087_
*279 _088_
*280 _089_
*281 _090_
*282 _091_
*283 _092_
*284 _093_
*285 _094_
*286 _095_
*287 _096_
*288 _097_
*289 _098_
*290 _099_
*291 _100_
*292 _101_
*293 _102_
*294 _103_
*295 _104_
*296 _105_
*297 _106_
*298 _107_
*299 _108_
*300 _109_
*301 _110_
*302 input1
*303 input10
*304 input11
*305 input2
*306 input3
*307 input4
*308 input5
*309 input6
*310 input7
*311 input8
*312 input9
*313 output12
*314 output13
*315 output14
*316 output15
*317 output16

*PORTS
a[0] I
a[1] I
a[2] I
a[3] I
b[0] I
b[1] I
b[2] I
b[3] I
carry O
out[0] O
out[1] O
out[2] O
out[3] O
sel[0] I
sel[1] I
sel[2] I

*D_NET *3 0.000738453
*CONN
*P a[0] I
*I *302:A I *D sky130_fd_sc_hd__buf_1
*CAP
1 a[0] 0.000369227
2 *302:A 0.000369227
*RES
1 a[0] *302:A 22.2632 
*END

*D_NET *4 0.00164131
*CONN
*P a[1] I
*I *305:A I *D sky130_fd_sc_hd__clkbuf_2
*CAP
1 a[1] 0.000820655
2 *305:A 0.000820655
3 *305:A *303:A 0
*RES
1 a[1] *305:A 26.3795 
*END

*D_NET *5 0.00111591
*CONN
*P a[2] I
*I *306:A I *D sky130_fd_sc_hd__buf_1
*CAP
1 a[2] 0.000503269
2 *306:A 0.000503269
3 *306:A out[2] 5.45307e-05
4 *306:A *316:A 5.48394e-05
*RES
1 a[2] *306:A 22.3186 
*END

*D_NET *6 0.00154369
*CONN
*P a[3] I
*I *307:A I *D sky130_fd_sc_hd__buf_1
*CAP
1 a[3] 0.000758723
2 *307:A 0.000758723
3 *307:A *310:A 0
4 *307:A *85:10 2.62426e-05
*RES
1 a[3] *307:A 28.5144 
*END

*D_NET *7 0.00107719
*CONN
*P b[0] I
*I *308:A I *D sky130_fd_sc_hd__buf_1
*CAP
1 b[0] 0.000538594
2 *308:A 0.000538594
*RES
1 b[0] *308:A 24.3893 
*END

*D_NET *8 0.00147355
*CONN
*P b[1] I
*I *309:A I *D sky130_fd_sc_hd__clkbuf_2
*CAP
1 b[1] 0.000736775
2 *309:A 0.000736775
3 *309:A out[0] 0
*RES
1 b[1] *309:A 27.6929 
*END

*D_NET *9 0.000865162
*CONN
*P b[2] I
*I *310:A I *D sky130_fd_sc_hd__buf_1
*CAP
1 b[2] 0.000432581
2 *310:A 0.000432581
3 *307:A *310:A 0
*RES
1 b[2] *310:A 21.8357 
*END

*D_NET *10 0.00093068
*CONN
*P b[3] I
*I *311:A I *D sky130_fd_sc_hd__buf_1
*CAP
1 b[3] 0.00046534
2 *311:A 0.00046534
*RES
1 b[3] *311:A 23.0321 
*END

*D_NET *11 0.0012792
*CONN
*P carry O
*I *313:X O *D sky130_fd_sc_hd__clkbuf_4
*CAP
1 carry 0.000639602
2 *313:X 0.000639602
*RES
1 *313:X carry 26.1393 
*END

*D_NET *12 0.000606169
*CONN
*P out[0] O
*I *314:X O *D sky130_fd_sc_hd__clkbuf_4
*CAP
1 out[0] 0.000303084
2 *314:X 0.000303084
3 *309:A out[0] 0
*RES
1 *314:X out[0] 20.3518 
*END

*D_NET *13 0.000590123
*CONN
*P out[1] O
*I *315:X O *D sky130_fd_sc_hd__clkbuf_4
*CAP
1 out[1] 0.000295062
2 *315:X 0.000295062
3 out[1] *73:20 0
*RES
1 *315:X out[1] 20.8518 
*END

*D_NET *14 0.0014677
*CONN
*P out[2] O
*I *316:X O *D sky130_fd_sc_hd__clkbuf_4
*CAP
1 out[2] 0.000706585
2 *316:X 0.000706585
3 *306:A out[2] 5.45307e-05
*RES
1 *316:X out[2] 27.6571 
*END

*D_NET *15 0.000700258
*CONN
*P out[3] O
*I *317:X O *D sky130_fd_sc_hd__clkbuf_4
*CAP
1 out[3] 0.000350129
2 *317:X 0.000350129
*RES
1 *317:X out[3] 20.6929 
*END

*D_NET *16 0.000481666
*CONN
*P sel[0] I
*I *312:A I *D sky130_fd_sc_hd__dlymetal6s2s_1
*CAP
1 sel[0] 0.000240833
2 *312:A 0.000240833
*RES
1 sel[0] *312:A 19.9411 
*END

*D_NET *17 0.00111768
*CONN
*P sel[1] I
*I *303:A I *D sky130_fd_sc_hd__clkbuf_2
*CAP
1 sel[1] 0.000557585
2 *303:A 0.000557585
3 *303:A *73:10 2.51343e-06
4 *305:A *303:A 0
*RES
1 sel[1] *303:A 24.3714 
*END

*D_NET *18 0.000505618
*CONN
*P sel[2] I
*I *304:A I *D sky130_fd_sc_hd__buf_1
*CAP
1 sel[2] 0.000252809
2 *304:A 0.000252809
*RES
1 sel[2] *304:A 20.0132 
*END

*D_NET *19 0.00424502
*CONN
*I *301:D I *D sky130_fd_sc_hd__dlxtn_1
*I *265:X O *D sky130_fd_sc_hd__a32o_1
*CAP
1 *301:D 0
2 *265:X 0.00124294
3 *19:22 0.00124294
4 *19:22 *263:B1 7.50601e-05
5 *19:22 *265:A1 0.0001582
6 *19:22 *265:A3 2.72924e-05
7 *19:22 *277:B1_N 7.89362e-05
8 *19:22 *283:B1 2.16482e-05
9 *19:22 *286:A1 0.000193596
10 *19:22 *296:C 0
11 *19:22 *297:A1 2.53112e-06
12 *19:22 *297:B1 0
13 *19:22 *21:48 0.00113501
14 *19:22 *33:25 1.02538e-05
15 *19:22 *39:14 0
16 *19:22 *40:8 5.66146e-05
*RES
1 *265:X *19:22 44.5143 
2 *19:22 *301:D 9.3 
*END

*D_NET *20 0.000211302
*CONN
*I *301:GATE_N I *D sky130_fd_sc_hd__dlxtn_1
*I *300:X O *D sky130_fd_sc_hd__clkbuf_1
*CAP
1 *301:GATE_N 0.000105651
2 *300:X 0.000105651
*RES
1 *300:X *301:GATE_N 20.3857 
*END

*D_NET *21 0.0069736
*CONN
*I *263:B1 I *D sky130_fd_sc_hd__a21oi_1
*I *283:B1 I *D sky130_fd_sc_hd__a21oi_1
*I *276:B1 I *D sky130_fd_sc_hd__a21o_1
*I *265:A1 I *D sky130_fd_sc_hd__a32o_1
*I *274:A I *D sky130_fd_sc_hd__and3_1
*I *244:X O *D sky130_fd_sc_hd__or3b_2
*CAP
1 *263:B1 0.000170228
2 *283:B1 0.00027212
3 *276:B1 0
4 *265:A1 0.000181828
5 *274:A 0
6 *244:X 0.000272945
7 *21:48 0.000750873
8 *21:31 0.000660581
9 *21:29 0.000632879
10 *21:12 0.000735595
11 *263:B1 *297:B1 6.42095e-05
12 *265:A1 *296:C 8.49861e-06
13 *265:A1 *49:20 6.09572e-05
14 *283:B1 *277:B1_N 1.00887e-05
15 *283:B1 *282:B 3.41517e-06
16 *283:B1 *37:10 0.00035664
17 *21:12 *244:B 0
18 *21:12 *45:14 0.000271352
19 *21:29 *274:C 0.00010589
20 *21:29 *295:A 9.61899e-05
21 *21:29 *297:B1 0.00018372
22 *21:29 *59:12 0.000366741
23 *21:48 *252:A1 2.29031e-05
24 *21:48 *288:C1 5.92441e-05
25 *21:48 *26:17 3.59945e-05
26 *21:48 *26:19 8.94237e-05
27 *21:48 *49:20 0.000171368
28 *19:22 *263:B1 7.50601e-05
29 *19:22 *265:A1 0.0001582
30 *19:22 *283:B1 2.16482e-05
31 *19:22 *21:48 0.00113501
*RES
1 *244:X *21:12 22.2286 
2 *21:12 *274:A 9.3 
3 *21:12 *21:29 9.875 
4 *21:29 *21:31 4.5 
5 *21:31 *265:A1 17.1214 
6 *21:31 *21:48 19.1964 
7 *21:48 *276:B1 9.3 
8 *21:48 *283:B1 22.9964 
9 *21:29 *263:B1 21.6036 
*END

*D_NET *22 0.00122283
*CONN
*I *297:B2 I *D sky130_fd_sc_hd__a221o_1
*I *265:A2 I *D sky130_fd_sc_hd__a32o_1
*I *256:B I *D sky130_fd_sc_hd__nand2_1
*I *245:X O *D sky130_fd_sc_hd__or2_1
*CAP
1 *297:B2 1.16327e-05
2 *265:A2 0.000228274
3 *256:B 6.03656e-05
4 *245:X 0
5 *22:21 0.000323018
6 *22:4 0.000143477
7 *256:B *245:A 1.87331e-05
8 *256:B *256:A 2.04681e-05
9 *256:B *82:18 5.46532e-05
10 *265:A2 *265:A3 3.4948e-05
11 *265:A2 *265:B1 2.87698e-05
12 *265:A2 *297:A1 7.56468e-05
13 *265:A2 *297:C1 1.00887e-05
14 *265:A2 *40:8 5.44079e-06
15 *265:A2 *74:18 3.69588e-05
16 *297:B2 *297:B1 1.87331e-05
17 *297:B2 *74:18 6.26774e-06
18 *22:21 *256:A 2.90501e-05
19 *22:21 *297:A1 7.2264e-05
20 *22:21 *297:C1 3.20477e-05
21 *22:21 *74:18 1.1994e-05
*RES
1 *245:X *22:4 9.3 
2 *22:4 *256:B 10.9786 
3 *22:4 *22:21 10.875 
4 *22:21 *265:A2 22.6571 
5 *22:21 *297:B2 9.85804 
*END

*D_NET *23 0.00556724
*CONN
*I *294:B I *D sky130_fd_sc_hd__and2b_1
*I *255:A I *D sky130_fd_sc_hd__nand2_1
*I *256:A I *D sky130_fd_sc_hd__nand2_1
*I *246:Y O *D sky130_fd_sc_hd__nand2_1
*CAP
1 *294:B 0.000362943
2 *255:A 0.000588467
3 *256:A 0.000173442
4 *246:Y 0.000248066
5 *23:18 0.00123488
6 *23:10 0.00108398
7 *255:A *291:B 6.996e-05
8 *255:A *31:8 4.46186e-06
9 *255:A *74:18 0.000678593
10 *255:A *85:10 0
11 *256:A *291:A 4.82222e-05
12 *256:A *33:25 0.000174961
13 *256:A *82:18 3.08664e-05
14 *294:B *286:A2 5.49544e-05
15 *294:B *286:B1_N 1.65558e-05
16 *294:B *289:A2 0
17 *294:B *296:C 0
18 *23:10 *86:30 0.000186895
19 *23:18 *74:18 0.000560484
20 *256:B *256:A 2.04681e-05
21 *22:21 *256:A 2.90501e-05
*RES
1 *246:Y *23:10 17.8179 
2 *23:10 *23:18 12.1607 
3 *23:18 *256:A 22.1214 
4 *23:18 *255:A 26.9429 
5 *23:10 *294:B 19.3179 
*END

*D_NET *24 0.00129656
*CONN
*I *254:A I *D sky130_fd_sc_hd__and2_1
*I *257:A I *D sky130_fd_sc_hd__nand2_1
*I *247:Y O *D sky130_fd_sc_hd__nand2_1
*CAP
1 *254:A 2.13113e-05
2 *257:A 0.000196943
3 *247:Y 0.000146653
4 *24:6 0.000364908
5 *257:A *254:B 3.11088e-05
6 *257:A *25:8 5.49995e-05
7 *257:A *34:8 1.32293e-05
8 *257:A *58:16 0.000141941
9 *24:6 *247:A 6.05161e-06
10 *24:6 *247:B 0.000143505
11 *24:6 *284:A 9.85599e-06
12 *24:6 *58:16 9.75171e-05
13 *24:6 *81:18 6.85372e-05
*RES
1 *247:Y *24:6 12.7107 
2 *24:6 *257:A 22.4429 
3 *24:6 *254:A 9.72857 
*END

*D_NET *25 0.00169217
*CONN
*I *257:B I *D sky130_fd_sc_hd__nand2_1
*I *253:A I *D sky130_fd_sc_hd__nand2_1
*I *289:B2 I *D sky130_fd_sc_hd__a221o_1
*I *248:X O *D sky130_fd_sc_hd__or2_1
*CAP
1 *257:B 2.13113e-05
2 *253:A 1.46657e-05
3 *289:B2 0.000214064
4 *248:X 0.000101116
5 *25:8 0.000423955
6 *25:6 0.000317653
7 *253:A *253:B 1.30765e-05
8 *289:B2 *253:B 6.19799e-05
9 *289:B2 *287:B_N 2.32275e-05
10 *289:B2 *288:A2 1.64621e-05
11 *289:B2 *30:12 5.49544e-05
12 *289:B2 *39:14 6.30552e-05
13 *289:B2 *58:25 2.85377e-05
14 *25:6 *248:B 2.84109e-05
15 *25:8 *287:B_N 0.00014554
16 *25:8 *30:12 4.48647e-05
17 *25:8 *34:8 6.42916e-05
18 *257:A *25:8 5.49995e-05
*RES
1 *248:X *25:6 11.0679 
2 *25:6 *25:8 4.64286 
3 *25:8 *289:B2 22.7464 
4 *25:8 *253:A 9.72857 
5 *25:6 *257:B 9.72857 
*END

*D_NET *26 0.00546918
*CONN
*I *276:A1 I *D sky130_fd_sc_hd__a21o_1
*I *277:A1 I *D sky130_fd_sc_hd__o21ba_1
*I *275:A I *D sky130_fd_sc_hd__xor2_1
*I *252:A1 I *D sky130_fd_sc_hd__o21ai_1
*I *260:A1 I *D sky130_fd_sc_hd__a21o_1
*I *249:Y O *D sky130_fd_sc_hd__xnor2_2
*CAP
1 *276:A1 3.10555e-05
2 *277:A1 1.42517e-05
3 *275:A 0.000681051
4 *252:A1 0.000169912
5 *260:A1 0
6 *249:Y 0.00097003
7 *26:19 0.00100161
8 *26:17 0.000232399
9 *26:13 0.000272812
10 *26:6 0.00114428
11 *252:A1 *281:C1 0
12 *252:A1 *29:6 0.000102659
13 *275:A *252:A2 9.41642e-05
14 *275:A *252:B1 3.77354e-05
15 *275:A *281:A1 2.38651e-06
16 *275:A *281:A2 9.83388e-05
17 *275:A *281:C1 0.000136708
18 *276:A1 *37:10 5.50052e-05
19 *277:A1 *277:B1_N 5.49995e-05
20 *277:A1 *72:12 2.85234e-05
21 *26:6 *260:A2 1.93007e-05
22 *26:13 *260:A2 3.81254e-05
23 *26:13 *276:A2 2.12733e-05
24 *26:13 *37:10 5.49995e-05
25 *26:17 *277:A2 5.49657e-05
26 *26:19 *277:A2 4.27842e-06
27 *21:48 *252:A1 2.29031e-05
28 *21:48 *26:17 3.59945e-05
29 *21:48 *26:19 8.94237e-05
*RES
1 *249:Y *26:6 20.1036 
2 *26:6 *260:A1 9.3 
3 *26:6 *26:13 2.17857 
4 *26:13 *26:17 6.14286 
5 *26:17 *26:19 3.46429 
6 *26:19 *252:A1 17.3357 
7 *26:19 *275:A 32.4964 
8 *26:17 *277:A1 14.3357 
9 *26:13 *276:A1 9.83571 
*END

*D_NET *27 0.00376857
*CONN
*I *252:A2 I *D sky130_fd_sc_hd__o21ai_1
*I *275:B I *D sky130_fd_sc_hd__xor2_1
*I *250:Y O *D sky130_fd_sc_hd__nand2_1
*CAP
1 *252:A2 0.00048382
2 *275:B 0
3 *250:Y 0.00029611
4 *27:12 0.00077993
5 *252:A2 *252:B1 0.000366616
6 *252:A2 *268:A 2.02794e-05
7 *252:A2 *281:A1 1.02538e-05
8 *252:A2 *29:6 5.65955e-05
9 *27:12 *268:A 0.000738637
10 *27:12 *271:A2 0.000182598
11 *27:12 *299:A 0.000739567
12 *275:A *252:A2 9.41642e-05
*RES
1 *250:Y *27:12 29.6036 
2 *27:12 *275:B 9.3 
3 *27:12 *252:A2 24.8714 
*END

*D_NET *28 0.00158586
*CONN
*I *252:B1 I *D sky130_fd_sc_hd__o21ai_1
*I *251:Y O *D sky130_fd_sc_hd__nand2_1
*CAP
1 *252:B1 0.000280063
2 *251:Y 0.000280063
3 *252:B1 *251:A 1.62025e-05
4 *252:B1 *281:A1 2.84026e-05
5 *252:B1 *281:A2 0.000140856
6 *252:B1 *281:C1 0.000119111
7 *252:B1 *315:A 0.000309547
8 *252:B1 *80:31 7.25873e-06
9 *252:A2 *252:B1 0.000366616
10 *275:A *252:B1 3.77354e-05
*RES
1 *251:Y *252:B1 26.9571 
*END

*D_NET *29 0.00125509
*CONN
*I *253:B I *D sky130_fd_sc_hd__nand2_1
*I *287:A I *D sky130_fd_sc_hd__or2b_1
*I *252:Y O *D sky130_fd_sc_hd__o21ai_1
*CAP
1 *253:B 0.000162067
2 *287:A 2.13113e-05
3 *252:Y 0.000237818
4 *29:6 0.000421196
5 *253:B *287:B_N 8.16102e-05
6 *29:6 *288:C1 9.67754e-05
7 *252:A1 *29:6 0.000102659
8 *252:A2 *29:6 5.65955e-05
9 *253:A *253:B 1.30765e-05
10 *289:B2 *253:B 6.19799e-05
*RES
1 *252:Y *29:6 13.9429 
2 *29:6 *287:A 9.72857 
3 *29:6 *253:B 12.7464 
*END

*D_NET *30 0.00246352
*CONN
*I *254:B I *D sky130_fd_sc_hd__and2_1
*I *288:A2 I *D sky130_fd_sc_hd__o211a_1
*I *253:Y O *D sky130_fd_sc_hd__nand2_1
*CAP
1 *254:B 0.00016412
2 *288:A2 0.000455371
3 *253:Y 0.000215267
4 *30:12 0.000834758
5 *254:B *58:16 0.000245132
6 *288:A2 *288:A1 2.60464e-05
7 *288:A2 *288:B1 1.87331e-05
8 *288:A2 *289:A2 8.25843e-06
9 *288:A2 *289:C1 5.65955e-05
10 *288:A2 *49:20 1.87331e-05
11 *288:A2 *58:16 0.000143306
12 *288:A2 *58:25 6.8388e-05
13 *30:12 *290:B1 1.9774e-05
14 *30:12 *39:14 4.16438e-05
15 *257:A *254:B 3.11088e-05
16 *289:B2 *288:A2 1.64621e-05
17 *289:B2 *30:12 5.49544e-05
18 *25:8 *30:12 4.48647e-05
*RES
1 *253:Y *30:12 21.6036 
2 *30:12 *288:A2 15.8179 
3 *30:12 *254:B 13.1214 
*END

*D_NET *31 0.00174611
*CONN
*I *255:B I *D sky130_fd_sc_hd__nand2_1
*I *292:A2 I *D sky130_fd_sc_hd__o21a_1
*I *291:B I *D sky130_fd_sc_hd__nand2_1
*I *254:X O *D sky130_fd_sc_hd__and2_1
*CAP
1 *255:B 0.000124599
2 *292:A2 0
3 *291:B 0.000276177
4 *254:X 0.000382864
5 *31:21 0.000124599
6 *31:8 0.000659041
7 *255:B *265:A3 3.067e-05
8 *255:B *292:A1 5.50052e-05
9 *291:B *291:A 1.87331e-05
10 *255:A *291:B 6.996e-05
11 *255:A *31:8 4.46186e-06
*RES
1 *254:X *31:8 20.3 
2 *31:8 *291:B 18.9071 
3 *31:8 *31:21 4.5 
4 *31:21 *292:A2 9.3 
5 *31:21 *255:B 12.175 
*END

*D_NET *32 0.00188965
*CONN
*I *265:A3 I *D sky130_fd_sc_hd__a32o_1
*I *255:Y O *D sky130_fd_sc_hd__nand2_1
*CAP
1 *265:A3 0.000465871
2 *255:Y 0.000465871
3 *265:A3 *263:A1 0.000108552
4 *265:A3 *265:B1 2.26879e-05
5 *265:A3 *292:A1 0.000431743
6 *265:A3 *292:B1 7.20851e-05
7 *265:A3 *33:36 0.000126771
8 *265:A3 *40:8 0.000103158
9 *255:B *265:A3 3.067e-05
10 *265:A2 *265:A3 3.4948e-05
11 *19:22 *265:A3 2.72924e-05
*RES
1 *255:Y *265:A3 28.7429 
*END

*D_NET *33 0.0033067
*CONN
*I *292:A1 I *D sky130_fd_sc_hd__o21a_1
*I *293:A I *D sky130_fd_sc_hd__or2_1
*I *263:A1 I *D sky130_fd_sc_hd__a21oi_1
*I *291:A I *D sky130_fd_sc_hd__nand2_1
*I *256:Y O *D sky130_fd_sc_hd__nand2_1
*CAP
1 *292:A1 7.90608e-05
2 *293:A 1.43009e-05
3 *263:A1 3.52402e-05
4 *291:A 0.000260588
5 *256:Y 0
6 *33:36 0.000126148
7 *33:25 0.000284952
8 *33:4 0.000477514
9 *263:A1 *263:A2 5.83641e-05
10 *263:A1 *292:B1 1.59373e-05
11 *291:A *298:A1 7.13645e-05
12 *291:A *298:A2 5.49489e-05
13 *291:A *298:B1 0.000185124
14 *291:A *82:18 3.8111e-05
15 *292:A1 *292:B1 0.00028969
16 *293:A *263:A2 5.38444e-06
17 *293:A *292:B1 1.02132e-05
18 *33:25 *297:B1 0.000155404
19 *33:25 *298:B1 7.85137e-05
20 *33:36 *263:A2 5.33005e-05
21 *33:36 *292:B1 1.59373e-05
22 *33:36 *39:14 2.23592e-05
23 *255:B *292:A1 5.50052e-05
24 *256:A *291:A 4.82222e-05
25 *256:A *33:25 0.000174961
26 *265:A3 *263:A1 0.000108552
27 *265:A3 *292:A1 0.000431743
28 *265:A3 *33:36 0.000126771
29 *291:B *291:A 1.87331e-05
30 *19:22 *33:25 1.02538e-05
*RES
1 *256:Y *33:4 9.3 
2 *33:4 *291:A 14.8 
3 *33:4 *33:25 13.7321 
4 *33:25 *263:A1 10.675 
5 *33:25 *33:36 1.35714 
6 *33:36 *293:A 9.72857 
7 *33:36 *292:A1 13.5321 
*END

*D_NET *34 0.00346612
*CONN
*I *282:A I *D sky130_fd_sc_hd__or2_1
*I *283:A1 I *D sky130_fd_sc_hd__a21oi_1
*I *262:A1 I *D sky130_fd_sc_hd__a21o_1
*I *287:B_N I *D sky130_fd_sc_hd__or2b_1
*I *257:Y O *D sky130_fd_sc_hd__nand2_1
*CAP
1 *282:A 0.000136743
2 *283:A1 0.000196856
3 *262:A1 0.00011994
4 *287:B_N 0.000267415
5 *257:Y 8.573e-05
6 *34:36 0.00041238
7 *34:21 0.00036368
8 *34:8 0.000518104
9 *262:A1 *262:A2 5.65955e-05
10 *262:A1 *262:B1 6.47486e-05
11 *282:A *282:B 9.84729e-05
12 *282:A *290:A1 3.24049e-05
13 *283:A1 *282:B 0.000224719
14 *283:A1 *37:31 2.31496e-05
15 *34:21 *262:B1 6.13812e-05
16 *34:21 *290:B1 0.000361978
17 *34:36 *290:B1 0.000113924
18 *253:B *287:B_N 8.16102e-05
19 *257:A *34:8 1.32293e-05
20 *289:B2 *287:B_N 2.32275e-05
21 *25:8 *287:B_N 0.00014554
22 *25:8 *34:8 6.42916e-05
*RES
1 *257:Y *34:8 11.0857 
2 *34:8 *287:B_N 14.3714 
3 *34:8 *34:21 9.17857 
4 *34:21 *262:A1 15.9964 
5 *34:21 *34:36 6.14286 
6 *34:36 *283:A1 11.8893 
7 *34:36 *282:A 11.4964 
*END

*D_NET *35 0.00121513
*CONN
*I *276:A2 I *D sky130_fd_sc_hd__a21o_1
*I *260:A2 I *D sky130_fd_sc_hd__a21o_1
*I *277:A2 I *D sky130_fd_sc_hd__o21ba_1
*I *258:X O *D sky130_fd_sc_hd__or2b_1
*CAP
1 *276:A2 5.16388e-05
2 *260:A2 0.000116554
3 *277:A2 0.000118772
4 *258:X 7.09602e-05
5 *35:21 0.000168193
6 *35:8 0.000189732
7 *276:A2 *37:10 5.66971e-05
8 *277:A2 *260:B1 0.000124157
9 *277:A2 *277:B1_N 5.49995e-05
10 *277:A2 *72:12 6.52846e-05
11 *35:8 *72:12 6.01956e-05
12 *26:6 *260:A2 1.93007e-05
13 *26:13 *260:A2 3.81254e-05
14 *26:13 *276:A2 2.12733e-05
15 *26:17 *277:A2 5.49657e-05
16 *26:19 *277:A2 4.27842e-06
*RES
1 *258:X *35:8 15.4429 
2 *35:8 *277:A2 16.8893 
3 *35:8 *35:21 4.5 
4 *35:21 *260:A2 11.4964 
5 *35:21 *276:A2 10.675 
*END

*D_NET *36 0.0020787
*CONN
*I *260:B1 I *D sky130_fd_sc_hd__a21o_1
*I *259:X O *D sky130_fd_sc_hd__and2b_1
*CAP
1 *260:B1 0.000842357
2 *259:X 0.000842357
3 *260:B1 *277:B1_N 0.000140907
4 *260:B1 *281:B1 4.76891e-06
5 *260:B1 *72:12 0.000124157
6 *277:A2 *260:B1 0.000124157
*RES
1 *259:X *260:B1 38.4036 
*END

*D_NET *37 0.00258475
*CONN
*I *283:A2 I *D sky130_fd_sc_hd__a21oi_1
*I *282:B I *D sky130_fd_sc_hd__or2_1
*I *262:A2 I *D sky130_fd_sc_hd__a21o_1
*I *260:X O *D sky130_fd_sc_hd__a21o_1
*CAP
1 *283:A2 0
2 *282:B 8.32343e-05
3 *262:A2 0.000232237
4 *260:X 0.000256851
5 *37:31 0.000108831
6 *37:10 0.000514684
7 *262:A2 *262:B1 0.000133863
8 *262:A2 *72:12 1.59373e-05
9 *282:B *290:A1 0.000122248
10 *282:B *290:A2 3.38774e-05
11 *37:10 *290:A2 5.49489e-05
12 *37:31 *290:A2 9.83442e-05
13 *262:A1 *262:A2 5.65955e-05
14 *276:A1 *37:10 5.50052e-05
15 *276:A2 *37:10 5.66971e-05
16 *282:A *282:B 9.84729e-05
17 *283:A1 *282:B 0.000224719
18 *283:A1 *37:31 2.31496e-05
19 *283:B1 *282:B 3.41517e-06
20 *283:B1 *37:10 0.00035664
21 *26:13 *37:10 5.49995e-05
*RES
1 *260:X *37:10 15.3179 
2 *37:10 *262:A2 22.6929 
3 *37:10 *37:31 0.946429 
4 *37:31 *282:B 12.7286 
5 *37:31 *283:A2 9.3 
*END

*D_NET *38 0.00153889
*CONN
*I *262:B1 I *D sky130_fd_sc_hd__a21o_1
*I *261:X O *D sky130_fd_sc_hd__and2b_1
*CAP
1 *262:B1 0.000448387
2 *261:X 0.000448387
3 *262:B1 *261:B 2.84109e-05
4 *262:B1 *72:12 0.000353711
5 *262:A1 *262:B1 6.47486e-05
6 *262:A2 *262:B1 0.000133863
7 *34:21 *262:B1 6.13812e-05
*RES
1 *261:X *262:B1 36.0821 
*END

*D_NET *39 0.00242111
*CONN
*I *293:B I *D sky130_fd_sc_hd__or2_1
*I *263:A2 I *D sky130_fd_sc_hd__a21oi_1
*I *262:X O *D sky130_fd_sc_hd__a21o_1
*CAP
1 *293:B 0
2 *263:A2 4.09351e-05
3 *262:X 0.000867915
4 *39:14 0.00090885
5 *263:A2 *292:B1 5.43093e-05
6 *39:14 *289:B1 9.9129e-05
7 *39:14 *292:B1 5.33005e-05
8 *39:14 *297:B1 9.76123e-05
9 *39:14 *72:12 5.49489e-05
10 *263:A1 *263:A2 5.83641e-05
11 *289:B2 *39:14 6.30552e-05
12 *293:A *263:A2 5.38444e-06
13 *19:22 *39:14 0
14 *30:12 *39:14 4.16438e-05
15 *33:36 *263:A2 5.33005e-05
16 *33:36 *39:14 2.23592e-05
*RES
1 *262:X *39:14 32.8536 
2 *39:14 *263:A2 10.675 
3 *39:14 *293:B 9.3 
*END

*D_NET *40 0.00147469
*CONN
*I *297:A1 I *D sky130_fd_sc_hd__a221o_1
*I *265:B1 I *D sky130_fd_sc_hd__a32o_1
*I *263:Y O *D sky130_fd_sc_hd__a21oi_1
*CAP
1 *297:A1 0.00027
2 *265:B1 0.000193421
3 *263:Y 3.66193e-05
4 *40:8 0.00050004
5 *265:B1 *292:B1 6.08775e-06
6 *265:B1 *49:12 6.87216e-06
7 *297:A1 *297:B1 3.1001e-05
8 *297:A1 *297:C1 5.66943e-05
9 *297:A1 *74:18 6.8445e-06
10 *265:A2 *265:B1 2.87698e-05
11 *265:A2 *297:A1 7.56468e-05
12 *265:A2 *40:8 5.44079e-06
13 *265:A3 *265:B1 2.26879e-05
14 *265:A3 *40:8 0.000103158
15 *19:22 *297:A1 2.53112e-06
16 *19:22 *40:8 5.66146e-05
17 *22:21 *297:A1 7.2264e-05
*RES
1 *263:Y *40:8 10.6705 
2 *40:8 *265:B1 12.2241 
3 *40:8 *297:A1 22.6393 
*END

*D_NET *41 0.0010163
*CONN
*I *265:B2 I *D sky130_fd_sc_hd__a32o_1
*I *264:X O *D sky130_fd_sc_hd__or2b_1
*CAP
1 *265:B2 0.000241134
2 *264:X 0.000241134
3 *265:B2 *245:A 5.66971e-05
4 *265:B2 *296:C 0.000311446
5 *265:B2 *45:14 2.59355e-05
6 *265:B2 *74:18 8.33056e-05
7 *265:B2 *86:30 5.66472e-05
*RES
1 *264:X *265:B2 33.1536 
*END

*D_NET *42 0.00609336
*CONN
*I *268:A I *D sky130_fd_sc_hd__and3_1
*I *272:A I *D sky130_fd_sc_hd__or3_1
*I *285:A I *D sky130_fd_sc_hd__and3_1
*I *273:A1 I *D sky130_fd_sc_hd__o21ai_1
*I *269:A I *D sky130_fd_sc_hd__and2_1
*I *279:A1 I *D sky130_fd_sc_hd__o21ai_1
*I *266:Y O *D sky130_fd_sc_hd__inv_2
*CAP
1 *268:A 0.000767722
2 *272:A 0.000142893
3 *285:A 0
4 *273:A1 1.68697e-05
5 *269:A 0
6 *279:A1 0.000302725
7 *266:Y 0
8 *42:52 0.000979004
9 *42:18 0.00041315
10 *42:14 0.000201963
11 *42:12 0.000427021
12 *42:4 0.000420742
13 *268:A *299:A 0.000243873
14 *268:A *315:A 4.08637e-05
15 *272:A *244:B 8.06378e-05
16 *272:A *299:A 6.14702e-06
17 *272:A *315:A 3.14003e-05
18 *272:A *74:28 0.000171679
19 *272:A *76:14 4.85965e-05
20 *273:A1 *269:B 3.41517e-06
21 *279:A1 *279:A2 1.07719e-05
22 *279:A1 *279:B1 6.05161e-06
23 *279:A1 *280:C1 8.47008e-05
24 *279:A1 *45:46 1.34698e-05
25 *279:A1 *84:14 2.66202e-05
26 *279:A1 *87:18 0.000133603
27 *42:12 *244:C_N 8.18233e-06
28 *42:12 *315:A 0.000183634
29 *42:12 *76:14 0
30 *42:12 *87:39 0
31 *42:14 *274:C 0.000142653
32 *42:14 *73:29 4.75972e-05
33 *42:14 *87:39 0.000185817
34 *42:18 *269:B 1.02132e-05
35 *42:18 *73:20 3.08664e-05
36 *42:18 *73:29 6.7224e-05
37 *42:52 *315:A 8.43386e-05
38 *252:A2 *268:A 2.02794e-05
39 *27:12 *268:A 0.000738637
*RES
1 *266:Y *42:4 9.3 
2 *42:4 *42:12 14.5357 
3 *42:12 *42:14 2.58929 
4 *42:14 *42:18 2.19643 
5 *42:18 *279:A1 24.3536 
6 *42:18 *269:A 9.3 
7 *42:14 *273:A1 9.72857 
8 *42:12 *285:A 9.3 
9 *42:4 *42:52 0.946429 
10 *42:52 *272:A 21.7643 
11 *42:52 *268:A 34.8714 
*END

*D_NET *43 0.00153721
*CONN
*I *268:C I *D sky130_fd_sc_hd__and3_1
*I *270:B I *D sky130_fd_sc_hd__nor2_1
*I *267:X O *D sky130_fd_sc_hd__a22o_1
*CAP
1 *268:C 4.89865e-05
2 *270:B 0.000485651
3 *267:X 0
4 *43:4 0.000534637
5 *268:C *268:B 7.74068e-05
6 *268:C *299:A 7.58841e-05
7 *268:C *83:29 9.50968e-06
8 *270:B *267:A1 8.75022e-05
9 *270:B *267:A2 9.41642e-05
10 *270:B *268:B 4.2921e-05
11 *270:B *271:A2 3.54697e-06
12 *270:B *271:B1 2.57826e-06
13 *270:B *271:B2 6.4976e-05
14 *270:B *76:14 9.44309e-06
*RES
1 *267:X *43:4 9.3 
2 *43:4 *270:B 25.5857 
3 *43:4 *268:C 19.5321 
*END

*D_NET *44 0.00065309
*CONN
*I *271:B1 I *D sky130_fd_sc_hd__o22a_1
*I *268:X O *D sky130_fd_sc_hd__and3_1
*CAP
1 *271:B1 0.000219451
2 *268:X 0.000219451
3 *271:B1 *271:A2 0.000100165
4 *271:B1 *76:14 0.000111444
5 *270:B *271:B1 2.57826e-06
*RES
1 *268:X *271:B1 30.8143 
*END

*D_NET *45 0.00855883
*CONN
*I *270:A I *D sky130_fd_sc_hd__nor2_1
*I *280:B1 I *D sky130_fd_sc_hd__o221a_1
*I *289:A2 I *D sky130_fd_sc_hd__a221o_1
*I *296:C I *D sky130_fd_sc_hd__and3_1
*I *269:X O *D sky130_fd_sc_hd__and2_1
*CAP
1 *270:A 0.000581542
2 *280:B1 6.4859e-05
3 *289:A2 0.000721755
4 *296:C 0.000244924
5 *269:X 0
6 *45:46 0.00118027
7 *45:14 0.0016318
8 *45:6 0.00119899
9 *270:A *84:27 0.000362708
10 *280:B1 *278:A2 1.42135e-05
11 *280:B1 *280:B2 8.23105e-06
12 *289:A2 *281:A1 2.97578e-05
13 *289:A2 *286:A2 0.00015244
14 *289:A2 *288:A1 5.33005e-05
15 *289:A2 *288:B1 2.38501e-05
16 *289:A2 *288:C1 6.56086e-05
17 *289:A2 *295:B 2.16315e-05
18 *289:A2 *49:20 0.000156069
19 *289:A2 *58:16 7.05661e-05
20 *289:A2 *58:25 0.000346145
21 *296:C *245:A 2.07889e-05
22 *45:14 *49:12 0.000487598
23 *45:14 *74:18 0.000378074
24 *45:14 *74:28 4.97967e-05
25 *45:14 *84:14 0
26 *45:46 *84:14 0
27 *45:46 *87:39 5.49541e-05
28 *265:A1 *296:C 8.49861e-06
29 *265:B2 *296:C 0.000311446
30 *265:B2 *45:14 2.59355e-05
31 *279:A1 *45:46 1.34698e-05
32 *288:A2 *289:A2 8.25843e-06
33 *294:B *289:A2 0
34 *294:B *296:C 0
35 *19:22 *296:C 0
36 *21:12 *45:14 0.000271352
*RES
1 *269:X *45:6 13.8 
2 *45:6 *45:14 24.0179 
3 *45:14 *296:C 18.675 
4 *45:14 *289:A2 28.3759 
5 *45:6 *45:46 8.9375 
6 *45:46 *280:B1 15.0589 
7 *45:46 *270:A 25.2911 
*END

*D_NET *46 0.000403505
*CONN
*I *271:B2 I *D sky130_fd_sc_hd__o22a_1
*I *270:Y O *D sky130_fd_sc_hd__nor2_1
*CAP
1 *271:B2 9.88107e-05
2 *270:Y 9.88107e-05
3 *271:B2 *76:14 0.000140907
4 *270:B *271:B2 6.4976e-05
*RES
1 *270:Y *271:B2 21.2071 
*END

*D_NET *47 0.00186638
*CONN
*I *286:A2 I *D sky130_fd_sc_hd__o21bai_1
*I *294:A_N I *D sky130_fd_sc_hd__and2b_1
*I *274:B I *D sky130_fd_sc_hd__and3_1
*I *272:X O *D sky130_fd_sc_hd__or3_1
*CAP
1 *286:A2 0.000230067
2 *294:A_N 0
3 *274:B 0
4 *272:X 0.00012111
5 *47:15 0.000388731
6 *47:6 0.000279773
7 *286:A2 *286:B1_N 2.34969e-05
8 *286:A2 *295:A 0.000139907
9 *286:A2 *295:B 5.33005e-05
10 *286:A2 *59:12 0.000226412
11 *47:6 *59:12 0.000103895
12 *47:15 *59:12 9.22928e-05
13 *289:A2 *286:A2 0.00015244
14 *294:B *286:A2 5.49544e-05
*RES
1 *272:X *47:6 11.0679 
2 *47:6 *274:B 9.3 
3 *47:6 *47:15 2.5 
4 *47:15 *294:A_N 9.3 
5 *47:15 *286:A2 24.3893 
*END

*D_NET *48 0.00146017
*CONN
*I *274:C I *D sky130_fd_sc_hd__and3_1
*I *273:Y O *D sky130_fd_sc_hd__o21ai_1
*CAP
1 *274:C 0.000504654
2 *273:Y 0.000504654
3 *274:C *272:C 3.97677e-05
4 *274:C *285:C 1.90148e-05
5 *274:C *59:12 9.03252e-05
6 *274:C *87:39 4.32734e-05
7 *274:C *87:50 9.94194e-06
8 *21:29 *274:C 0.00010589
9 *42:14 *274:C 0.000142653
*RES
1 *273:Y *274:C 25.3679 
*END

*D_NET *49 0.00523729
*CONN
*I *292:B1 I *D sky130_fd_sc_hd__o21a_1
*I *288:B1 I *D sky130_fd_sc_hd__o211a_1
*I *281:A1 I *D sky130_fd_sc_hd__a211o_1
*I *274:X O *D sky130_fd_sc_hd__and3_1
*CAP
1 *292:B1 0.000554896
2 *288:B1 3.18313e-05
3 *281:A1 0.000510036
4 *274:X 0.000496216
5 *49:20 0.000758827
6 *49:12 0.00126807
7 *281:A1 *281:B1 9.15842e-06
8 *281:A1 *281:C1 2.84026e-05
9 *281:A1 *288:C1 2.38501e-05
10 *288:B1 *288:C1 2.34594e-05
11 *252:A2 *281:A1 1.02538e-05
12 *252:B1 *281:A1 2.84026e-05
13 *263:A1 *292:B1 1.59373e-05
14 *263:A2 *292:B1 5.43093e-05
15 *265:A1 *49:20 6.09572e-05
16 *265:A3 *292:B1 7.20851e-05
17 *265:B1 *292:B1 6.08775e-06
18 *265:B1 *49:12 6.87216e-06
19 *275:A *281:A1 2.38651e-06
20 *288:A2 *288:B1 1.87331e-05
21 *288:A2 *49:20 1.87331e-05
22 *289:A2 *281:A1 2.97578e-05
23 *289:A2 *288:B1 2.38501e-05
24 *289:A2 *49:20 0.000156069
25 *292:A1 *292:B1 0.00028969
26 *293:A *292:B1 1.02132e-05
27 *21:48 *49:20 0.000171368
28 *33:36 *292:B1 1.59373e-05
29 *39:14 *292:B1 5.33005e-05
30 *45:14 *49:12 0.000487598
*RES
1 *274:X *49:12 25.2107 
2 *49:12 *49:20 15.3214 
3 *49:20 *281:A1 26.6393 
4 *49:20 *288:B1 10.2643 
5 *49:12 *292:B1 18.0857 
*END

*D_NET *50 0.000356331
*CONN
*I *281:A2 I *D sky130_fd_sc_hd__a211o_1
*I *275:X O *D sky130_fd_sc_hd__xor2_1
*CAP
1 *281:A2 5.12564e-05
2 *275:X 5.12564e-05
3 *281:A2 *281:C1 1.46231e-05
4 *252:B1 *281:A2 0.000140856
5 *275:A *281:A2 9.83388e-05
*RES