*SPEF "ieee 1481-1999"
*DESIGN "alu"
*DATE "11:11:11 Fri 11 11, 1111"
*VENDOR "OpenRCX"
*PROGRAM "Parallel Extraction"
*VERSION "1.0"
*DESIGN_FLOW "NAME_SCOPE LOCAL" "PIN_CAP NONE"
*DIVIDER /
*DELIMITER :
*BUS_DELIMITER []
*T_UNIT 1 NS
*C_UNIT 1 PF
*R_UNIT 1 OHM
*L_UNIT 1 HENRY

*NAME_MAP
*3 a[0]
*4 a[1]
*5 a[2]
*6 a[3]
*7 b[0]
*8 b[1]
*9 b[2]
*10 b[3]
*11 carry
*12 out[0]
*13 out[1]
*14 out[2]
*15 out[3]
*16 sel[0]
*17 sel[1]
*18 sel[2]
*19 _000_
*20 _001_
*21 _002_
*22 _003_
*23 _004_
*24 _005_
*25 _006_
*26 _007_
*27 _008_
*28 _009_
*29 _010_
*30 _011_
*31 _012_
*32 _013_
*33 _014_
*34 _015_
*35 _016_
*36 _017_
*37 _018_
*38 _019_
*39 _020_
*40 _021_
*41 _022_
*42 _023_
*43 _024_
*44 _025_
*45 _026_
*46 _027_
*47 _028_
*48 _029_
*49 _030_
*50 _031_
*51 _032_
*52 _033_
*53 _034_
*54 _035_
*55 _036_
*56 _037_
*57 _038_
*58 _039_
*59 _040_
*60 _041_
*61 _042_
*62 _043_
*63 _044_
*64 _045_
*65 _046_
*66 _047_
*67 _048_
*68 _049_
*69 _050_
*70 _051_
*71 _052_
*72 net1
*73 net10
*74 net11
*75 net12
*76 net13
*77 net14
*78 net15
*79 net16
*80 net2
*81 net3
*82 net4
*83 net5
*84 net6
*85 net7
*86 net8
*87 net9
*88 FILLER_0_0_15
*89 FILLER_0_0_20
*90 FILLER_0_0_29
*91 FILLER_0_0_41
*92 FILLER_0_0_49
*93 FILLER_0_0_55
*94 FILLER_0_0_57
*95 FILLER_0_0_69
*96 FILLER_0_0_7
*97 FILLER_0_0_83
*98 FILLER_0_10_16
*99 FILLER_0_10_29
*100 FILLER_0_10_37
*101 FILLER_0_10_52
*102 FILLER_0_10_56
*103 FILLER_0_10_72
*104 FILLER_0_11_3
*105 FILLER_0_11_30
*106 FILLER_0_11_34
*107 FILLER_0_11_38
*108 FILLER_0_11_45
*109 FILLER_0_11_53
*110 FILLER_0_11_57
*111 FILLER_0_11_69
*112 FILLER_0_11_81
*113 FILLER_0_12_13
*114 FILLER_0_12_29
*115 FILLER_0_12_37
*116 FILLER_0_12_43
*117 FILLER_0_12_57
*118 FILLER_0_12_69
*119 FILLER_0_12_81
*120 FILLER_0_13_11
*121 FILLER_0_13_23
*122 FILLER_0_13_27
*123 FILLER_0_13_29
*124 FILLER_0_13_37
*125 FILLER_0_13_41
*126 FILLER_0_13_53
*127 FILLER_0_13_57
*128 FILLER_0_13_65
*129 FILLER_0_13_72
*130 FILLER_0_1_21
*131 FILLER_0_1_52
*132 FILLER_0_1_57
*133 FILLER_0_1_64
*134 FILLER_0_1_69
*135 FILLER_0_1_81
*136 FILLER_0_1_9
*137 FILLER_0_2_15
*138 FILLER_0_2_27
*139 FILLER_0_2_29
*140 FILLER_0_2_3
*141 FILLER_0_2_41
*142 FILLER_0_2_57
*143 FILLER_0_2_69
*144 FILLER_0_3_15
*145 FILLER_0_3_28
*146 FILLER_0_3_3
*147 FILLER_0_3_40
*148 FILLER_0_3_62
*149 FILLER_0_3_73
*150 FILLER_0_3_81
*151 FILLER_0_4_16
*152 FILLER_0_4_3
*153 FILLER_0_4_34
*154 FILLER_0_4_46
*155 FILLER_0_4_58
*156 FILLER_0_4_70
*157 FILLER_0_4_82
*158 FILLER_0_5_24
*159 FILLER_0_5_36
*160 FILLER_0_5_46
*161 FILLER_0_5_54
*162 FILLER_0_5_57
*163 FILLER_0_5_69
*164 FILLER_0_5_81
*165 FILLER_0_5_9
*166 FILLER_0_6_10
*167 FILLER_0_6_22
*168 FILLER_0_6_29
*169 FILLER_0_6_3
*170 FILLER_0_6_41
*171 FILLER_0_6_45
*172 FILLER_0_6_62
*173 FILLER_0_6_73
*174 FILLER_0_6_82
*175 FILLER_0_7_22
*176 FILLER_0_7_3
*177 FILLER_0_7_43
*178 FILLER_0_7_55
*179 FILLER_0_7_60
*180 FILLER_0_7_71
*181 FILLER_0_7_79
*182 FILLER_0_7_83
*183 FILLER_0_8_15
*184 FILLER_0_8_27
*185 FILLER_0_8_29
*186 FILLER_0_8_3
*187 FILLER_0_8_41
*188 FILLER_0_8_53
*189 FILLER_0_8_65
*190 FILLER_0_8_73
*191 FILLER_0_8_80
*192 FILLER_0_9_15
*193 FILLER_0_9_22
*194 FILLER_0_9_3
*195 FILLER_0_9_34
*196 FILLER_0_9_46
*197 FILLER_0_9_54
*198 FILLER_0_9_63
*199 FILLER_0_9_75
*200 PHY_0
*201 PHY_1
*202 PHY_10
*203 PHY_11
*204 PHY_12
*205 PHY_13
*206 PHY_14
*207 PHY_15
*208 PHY_16
*209 PHY_17
*210 PHY_18
*211 PHY_19
*212 PHY_2
*213 PHY_20
*214 PHY_21
*215 PHY_22
*216 PHY_23
*217 PHY_24
*218 PHY_25
*219 PHY_26
*220 PHY_27
*221 PHY_3
*222 PHY_4
*223 PHY_5
*224 PHY_6
*225 PHY_7
*226 PHY_8
*227 PHY_9
*228 TAP_28
*229 TAP_29
*230 TAP_30
*231 TAP_31
*232 TAP_32
*233 TAP_33
*234 TAP_34
*235 TAP_35
*236 TAP_36
*237 TAP_37
*238 TAP_38
*239 TAP_39
*240 TAP_40
*241 TAP_41
*242 TAP_42
*243 TAP_43
*244 _053_
*245 _054_
*246 _055_
*247 _056_
*248 _057_
*249 _058_
*250 _059_
*251 _060_
*252 _061_
*253 _062_
*254 _063_
*255 _064_
*256 _065_
*257 _066_
*258 _067_
*259 _068_
*260 _069_
*261 _070_
*262 _071_
*263 _072_
*264 _073_
*265 _074_
*266 _075_
*267 _076_
*268 _077_
*269 _078_
*270 _079_
*271 _080_
*272 _081_
*273 _082_
*274 _083_
*275 _084_
*276 _085_
*277 _086_
*278 _087_
*279 _088_
*280 _089_
*281 _090_
*282 _091_
*283 _092_
*284 _093_
*285 _094_
*286 _095_
*287 _096_
*288 _097_
*289 _098_
*290 _099_
*291 _100_
*292 _101_
*293 _102_
*294 _103_
*295 _104_
*296 _105_
*297 _106_
*298 _107_
*299 _108_
*300 _109_
*301 _110_
*302 input1
*303 input10
*304 input11
*305 input2
*306 input3
*307 input4
*308 input5
*309 input6
*310 input7
*311 input8
*312 input9
*313 output12
*314 output13
*315 output14
*316 output15
*317 output16

*PORTS
a[0] I
a[1] I
a[2] I
a[3] I
b[0] I
b[1] I
b[2] I
b[3] I
carry O
out[0] O
out[1] O
out[2] O
out[3] O
sel[0] I
sel[1] I
sel[2] I

*D_NET *3 0.000777587
*CONN
*P a[0] I
*I *302:A I *D sky130_fd_sc_hd__buf_1
*CAP
1 a[0] 0.000388793
2 *302:A 0
3 *3:15 0.000388793
*RES
1 a[0] *3:15 28.8726 
2 *3:15 *302:A 23 
*END

*D_NET *4 0.00172558
*CONN
*P a[1] I
*I *305:A I *D sky130_fd_sc_hd__clkbuf_2
*CAP
1 a[1] 0.000862789
2 *305:A 0
3 *4:15 0.000862789
4 *4:15 *17:9 0
*RES
1 a[1] *4:15 33.6777 
2 *4:15 *305:A 23 
*END

*D_NET *5 0.00117822
*CONN
*P a[2] I
*I *306:A I *D sky130_fd_sc_hd__buf_1
*CAP
1 a[2] 0.000531947
2 *306:A 0
3 *5:17 0.000531947
4 *5:17 *316:A 5.74266e-05
5 *5:17 *14:8 5.68958e-05
*RES
1 a[2] *5:17 28.9438 
2 *5:17 *306:A 23 
*END

*D_NET *6 0.00166494
*CONN
*P a[3] I
*I *307:A I *D sky130_fd_sc_hd__buf_1
*CAP
1 a[3] 0.000819991
2 *307:A 0
3 *6:17 0.000819991
4 *6:17 *310:A 0
5 *6:17 *85:8 2.49531e-05
*RES
1 a[3] *6:17 36.1286 
2 *6:17 *307:A 23 
*END

*D_NET *7 0.00113197
*CONN
*P b[0] I
*I *308:A I *D sky130_fd_sc_hd__buf_1
*CAP
1 b[0] 0.000565984
2 *308:A 0
3 *7:11 0.000565984
*RES
1 b[0] *7:11 27.2836 
2 *7:11 *308:A 23 
*END

*D_NET *8 0.00154715
*CONN
*P b[1] I
*I *309:A I *D sky130_fd_sc_hd__clkbuf_2
*CAP
1 b[1] 0.000773574
2 *309:A 0
3 *8:9 0.000773574
4 *8:9 out[0] 0
*RES
1 b[1] *8:9 31.1157 
2 *8:9 *309:A 23 
*END

*D_NET *9 0.000934518
*CONN
*P b[2] I
*I *310:A I *D sky130_fd_sc_hd__buf_1
*CAP
1 b[2] 0.000467259
2 *310:A 0.000467259
3 *6:17 *310:A 0
*RES
1 b[2] *310:A 47.3214 
*END

*D_NET *10 0.00098777
*CONN
*P b[3] I
*I *311:A I *D sky130_fd_sc_hd__buf_1
*CAP
1 b[3] 0.000493885
2 *311:A 0.000493885
*RES
1 b[3] *311:A 48.7093 
*END

*D_NET *11 0.00134523
*CONN
*P carry O
*I *313:X O *D sky130_fd_sc_hd__clkbuf_4
*CAP
1 carry 0.00057872
2 *313:X 9.38956e-05
3 *11:8 0.000672616
*RES
1 *313:X *11:8 39.5743 
2 *11:8 carry 12.7393 
*END

*D_NET *12 0.000628978
*CONN
*P out[0] O
*I *314:X O *D sky130_fd_sc_hd__clkbuf_4
*CAP
1 out[0] 0.000314489
2 *314:X 0.000314489
3 *8:9 out[0] 0
*RES
1 *314:X out[0] 49.6532 
*END

*D_NET *13 0.000635159
*CONN
*P out[1] O
*I *315:X O *D sky130_fd_sc_hd__clkbuf_4
*CAP
1 out[1] 9.83601e-05
2 *315:X 0.000219219
3 *13:12 0.00031758
4 *13:12 *73:20 0
*RES
1 *315:X *13:12 49.9046 
2 *13:12 out[1] 0.328533 
*END

*D_NET *14 0.00154232
*CONN
*P out[2] O
*I *316:X O *D sky130_fd_sc_hd__clkbuf_4
*CAP
1 out[2] 0.000499786
2 *316:X 0.000242926
3 *14:8 0.000742713
4 *5:17 *14:8 5.68958e-05
*RES
1 *316:X *14:8 42.9093 
2 *14:8 out[2] 11.165 
*END

*D_NET *15 0.000740866
*CONN
*P out[3] O
*I *317:X O *D sky130_fd_sc_hd__clkbuf_4
*CAP
1 out[3] 0.000370433
2 *317:X 0.000370433
*RES
1 *317:X out[3] 45.9957 
*END

*D_NET *16 0.000519102
*CONN
*P sel[0] I
*I *312:A I *D sky130_fd_sc_hd__dlymetal6s2s_1
*CAP
1 sel[0] 0.000259551
2 *312:A 0.000259551
*RES
1 sel[0] *312:A 49.1767 
*END

*D_NET *17 0.00118638
*CONN
*P sel[1] I
*I *303:A I *D sky130_fd_sc_hd__clkbuf_2
*CAP
1 sel[1] 0.00059196
2 *303:A 0
3 *17:9 0.00059196
4 *17:9 *73:10 2.45549e-06
5 *4:15 *17:9 0
*RES
1 sel[1] *17:9 27.2629 
2 *17:9 *303:A 23 
*END

*D_NET *18 0.000533015
*CONN
*P sel[2] I
*I *304:A I *D sky130_fd_sc_hd__buf_1
*CAP
1 sel[2] 0.000266508
2 *304:A 0.000266508
*RES
1 sel[2] *304:A 49.2626 
*END

*D_NET *19 0.00480982
*CONN
*I *301:D I *D sky130_fd_sc_hd__dlxtn_1
*I *265:X O *D sky130_fd_sc_hd__a32o_1
*CAP
1 *301:D 0
2 *265:X 0.000325956
3 *19:22 0.00110788
4 *19:16 0.00143383
5 *19:16 *265:A1 0
6 *19:16 *296:C 0
7 *19:16 *32:12 2.77095e-05
8 *19:16 *33:25 9.58618e-06
9 *19:16 *40:8 5.8072e-05
10 *19:16 *40:29 2.35118e-06
11 *19:16 *68:10 0
12 *19:22 *265:A1 0.000174079
13 *19:22 *21:48 0.00126673
14 *19:22 *21:65 2.23754e-05
15 *19:22 *21:78 7.81176e-05
16 *19:22 *39:14 0
17 *19:22 *51:8 8.78864e-05
18 *19:22 *58:42 0.000215252
19 *19:22 *68:10 0
*RES
1 *265:X *19:16 42.3396 
2 *19:16 *19:22 41.0689 
3 *19:22 *301:D 23 
*END

*D_NET *20 0.000225681
*CONN
*I *301:GATE_N I *D sky130_fd_sc_hd__dlxtn_1
*I *300:X O *D sky130_fd_sc_hd__clkbuf_1
*CAP
1 *301:GATE_N 0.00011284
2 *300:X 0.00011284
*RES
1 *300:X *301:GATE_N 48.0714 
*END

*D_NET *21 0.00773705
*CONN
*I *263:B1 I *D sky130_fd_sc_hd__a21oi_1
*I *283:B1 I *D sky130_fd_sc_hd__a21oi_1
*I *276:B1 I *D sky130_fd_sc_hd__a21o_1
*I *265:A1 I *D sky130_fd_sc_hd__a32o_1
*I *274:A I *D sky130_fd_sc_hd__and3_1
*I *244:X O *D sky130_fd_sc_hd__or3b_2
*CAP
1 *263:B1 0
2 *283:B1 0
3 *276:B1 0
4 *265:A1 0.000223745
5 *274:A 0
6 *244:X 0.000300722
7 *21:78 0.000206133
8 *21:65 0.000302096
9 *21:48 0.000894164
10 *21:31 0.000815813
11 *21:29 0.000715602
12 *21:12 0.000509469
13 *21:10 0.000300722
14 *265:A1 *296:C 8.61037e-06
15 *265:A1 *49:20 6.33614e-05
16 *21:10 *45:14 0.000269781
17 *21:10 *73:51 0
18 *21:29 *295:A 9.69947e-05
19 *21:29 *48:6 0.000107796
20 *21:29 *59:12 0.000375369
21 *21:29 *68:10 0.000182826
22 *21:48 *252:A1 2.14404e-05
23 *21:48 *26:17 3.36703e-05
24 *21:48 *26:19 8.47123e-05
25 *21:48 *49:20 0.000177797
26 *21:48 *61:10 6.12479e-05
27 *21:65 *282:B 3.23857e-06
28 *21:65 *37:10 0.000363719
29 *21:65 *51:8 1.13812e-05
30 *21:78 *68:10 6.53382e-05
31 *19:16 *265:A1 0
32 *19:22 *265:A1 0.000174079
33 *19:22 *21:48 0.00126673
34 *19:22 *21:65 2.23754e-05
35 *19:22 *21:78 7.81176e-05
*RES
1 *244:X *21:10 42.5571 
2 *21:10 *21:12 15 
3 *21:12 *274:A 23 
4 *21:12 *21:29 11.455 
5 *21:29 *21:31 15 
6 *21:31 *265:A1 41.8529 
7 *21:31 *21:48 32.0479 
8 *21:48 *276:B1 23 
9 *21:48 *21:65 35.4479 
10 *21:65 *283:B1 23 
11 *21:29 *21:78 33.8321 
12 *21:78 *263:B1 23 
*END

*D_NET *22 0.00140088
*CONN
*I *297:B2 I *D sky130_fd_sc_hd__a221o_1
*I *265:A2 I *D sky130_fd_sc_hd__a32o_1
*I *256:B I *D sky130_fd_sc_hd__nand2_1
*I *245:X O *D sky130_fd_sc_hd__or2_1
*CAP
1 *297:B2 1.41815e-05
2 *265:A2 0
3 *256:B 6.45924e-05
4 *245:X 0
5 *22:33 0.00027694
6 *22:21 0.000401691
7 *22:4 0.000175162
8 *256:B *245:A 1.9054e-05
9 *256:B *23:28 1.92324e-05
10 *256:B *82:18 5.71047e-05
11 *297:B2 *297:B1 1.9054e-05
12 *297:B2 *74:10 6.39489e-06
13 *22:21 *23:28 2.71504e-05
14 *22:21 *40:29 7.54677e-05
15 *22:21 *69:10 3.31149e-05
16 *22:21 *74:10 1.20646e-05
17 *22:33 *265:B1 2.87262e-05
18 *22:33 *32:12 3.82813e-05
19 *22:33 *40:8 5.52853e-06
20 *22:33 *40:29 7.77327e-05
21 *22:33 *69:10 1.13812e-05
22 *22:33 *74:10 3.80273e-05
*RES
1 *245:X *22:4 23 
2 *22:4 *256:B 24.9471 
3 *22:4 *22:21 32.175 
4 *22:21 *22:33 35.0543 
5 *22:33 *265:A2 23 
6 *22:21 *297:B2 23.6473 
*END

*D_NET *23 0.0060381
*CONN
*I *294:B I *D sky130_fd_sc_hd__and2b_1
*I *255:A I *D sky130_fd_sc_hd__nand2_1
*I *256:A I *D sky130_fd_sc_hd__nand2_1
*I *246:Y O *D sky130_fd_sc_hd__nand2_1
*CAP
1 *294:B 0.000412481
2 *255:A 0
3 *256:A 0
4 *246:Y 0.000267303
5 *23:41 0.000650476
6 *23:28 0.000203876
7 *23:18 0.00137674
8 *23:10 0.00120218
9 *294:B *296:C 0
10 *294:B *45:35 0
11 *294:B *47:30 5.56356e-05
12 *294:B *59:18 1.62015e-05
13 *23:10 *86:30 0.00019167
14 *23:18 *74:10 0.000571041
15 *23:28 *291:A 5.20427e-05
16 *23:28 *33:25 0.000193399
17 *23:28 *82:18 3.22051e-05
18 *23:41 *291:B 7.23558e-05
19 *23:41 *31:8 4.6318e-06
20 *23:41 *74:10 0.000689477
21 *23:41 *85:10 0
22 *256:B *23:28 1.92324e-05
23 *22:21 *23:28 2.71504e-05
*RES
1 *246:Y *23:10 42.6607 
2 *23:10 *23:18 23.8864 
3 *23:18 *23:28 34.4329 
4 *23:28 *256:A 23 
5 *23:18 *23:41 40.0257 
6 *23:41 *255:A 23 
7 *23:10 *294:B 44.4007 
*END

*D_NET *24 0.00139702
*CONN
*I *254:A I *D sky130_fd_sc_hd__and2_1
*I *257:A I *D sky130_fd_sc_hd__nand2_1
*I *247:Y O *D sky130_fd_sc_hd__nand2_1
*CAP
1 *254:A 2.18824e-05
2 *257:A 0
3 *247:Y 0.000162918
4 *24:16 0.000223379
5 *24:6 0.000408179
6 *24:6 *247:A 6.17437e-06
7 *24:6 *247:B 0.000147237
8 *24:6 *284:A 9.8592e-06
9 *24:6 *58:16 9.89901e-05
10 *24:6 *81:18 7.12098e-05
11 *24:16 *254:B 3.26241e-05
12 *24:16 *25:8 5.5792e-05
13 *24:16 *34:8 1.35999e-05
14 *24:16 *58:16 0.000145171
*RES
1 *247:Y *24:6 26.9564 
2 *24:6 *24:16 34.8057 
3 *24:16 *257:A 23 
4 *24:6 *254:A 23.4971 
*END

*D_NET *25 0.00185395
*CONN
*I *257:B I *D sky130_fd_sc_hd__nand2_1
*I *253:A I *D sky130_fd_sc_hd__nand2_1
*I *289:B2 I *D sky130_fd_sc_hd__a221o_1
*I *248:X O *D sky130_fd_sc_hd__or2_1
*CAP
1 *257:B 2.18824e-05
2 *253:A 1.5461e-05
3 *289:B2 0
4 *248:X 0.000112329
5 *25:22 0.000249987
6 *25:8 0.000484552
7 *25:6 0.000353316
8 *253:A *253:B 1.33082e-05
9 *25:6 *248:B 2.93431e-05
10 *25:8 *287:B_N 0.000151474
11 *25:8 *30:10 4.65096e-05
12 *25:8 *34:8 6.74232e-05
13 *25:22 *253:B 6.34357e-05
14 *25:22 *287:B_N 2.32787e-05
15 *25:22 *288:A2 1.71761e-05
16 *25:22 *30:10 5.56356e-05
17 *25:22 *39:14 6.44674e-05
18 *25:22 *58:25 2.85818e-05
19 *24:16 *25:8 5.5792e-05
*RES
1 *248:X *25:6 25.0507 
2 *25:6 *25:8 5.38571 
3 *25:8 *25:22 35.1579 
4 *25:22 *289:B2 23 
5 *25:8 *253:A 23.4971 
6 *25:6 *257:B 23.4971 
*END

*D_NET *26 0.00593588
*CONN
*I *276:A1 I *D sky130_fd_sc_hd__a21o_1
*I *277:A1 I *D sky130_fd_sc_hd__o21ba_1
*I *275:A I *D sky130_fd_sc_hd__xor2_1
*I *252:A1 I *D sky130_fd_sc_hd__o21ai_1
*I *260:A1 I *D sky130_fd_sc_hd__a21o_1
*I *249:Y O *D sky130_fd_sc_hd__xnor2_2
*CAP
1 *276:A1 3.40967e-05
2 *277:A1 1.82709e-05
3 *275:A 9.82833e-05
4 *252:A1 0.000190259
5 *260:A1 0
6 *249:Y 0.00103434
7 *26:40 0.000753402
8 *26:19 0.00101789
9 *26:17 0.000277838
10 *26:13 0.000318259
11 *26:6 0.00123145
12 *252:A1 *29:6 0.00010766
13 *252:A1 *55:10 0
14 *275:A *281:A2 0.000100061
15 *275:A *27:31 9.41704e-05
16 *275:A *28:8 3.91164e-05
17 *275:A *55:10 0.000141118
18 *276:A1 *37:10 5.58003e-05
19 *277:A1 *277:B1_N 5.5792e-05
20 *277:A1 *72:6 2.95423e-05
21 *26:6 *260:A2 1.92253e-05
22 *26:13 *260:A2 3.82559e-05
23 *26:13 *276:A2 2.19403e-05
24 *26:13 *37:10 5.5792e-05
25 *26:17 *277:A2 5.68297e-05
26 *26:19 *277:A2 4.41821e-06
27 *26:40 *49:30 2.24366e-06
28 *21:48 *252:A1 2.14404e-05
29 *21:48 *26:17 3.36703e-05
30 *21:48 *26:19 8.47123e-05
*RES
1 *249:Y *26:6 35.5321 
2 *26:6 *260:A1 23 
3 *26:6 *26:13 2.52714 
4 *26:13 *26:17 16.9057 
5 *26:17 *26:19 4.01857 
6 *26:19 *252:A1 42.1014 
7 *26:19 *26:40 38.2443 
8 *26:40 *275:A 41.0036 
9 *26:17 *277:A1 38.6214 
10 *26:13 *276:A1 23.6214 
*END

*D_NET *27 0.00421992
*CONN
*I *252:A2 I *D sky130_fd_sc_hd__o21ai_1
*I *275:B I *D sky130_fd_sc_hd__xor2_1
*I *250:Y O *D sky130_fd_sc_hd__nand2_1
*CAP
1 *252:A2 0
2 *275:B 0
3 *250:Y 0.000105762
4 *27:31 0.00055202
5 *27:12 0.000806878
6 *27:8 0.000360621
7 *27:8 *271:A2 0.000185368
8 *27:12 *42:71 0.000825466
9 *27:12 *74:43 0.000826755
10 *27:31 *28:8 0.000372993
11 *27:31 *29:6 5.79559e-05
12 *27:31 *42:71 2.23467e-05
13 *27:31 *49:30 9.58618e-06
14 *275:A *27:31 9.41704e-05
*RES
1 *250:Y *27:8 40.0507 
2 *27:8 *27:12 26.0614 
3 *27:12 *275:B 23 
4 *27:12 *27:31 37.6229 
5 *27:31 *252:A2 23 
*END

*D_NET *28 0.00169033
*CONN
*I *252:B1 I *D sky130_fd_sc_hd__o21ai_1
*I *251:Y O *D sky130_fd_sc_hd__nand2_1
*CAP
1 *252:B1 0
2 *251:Y 0.000325724
3 *28:8 0.000325724
4 *28:8 *251:A 1.61385e-05
5 *28:8 *281:A2 0.000143259
6 *28:8 *49:30 2.93335e-05
7 *28:8 *55:10 0.00011596
8 *28:8 *77:10 0.000314468
9 *28:8 *80:31 7.61229e-06
10 *275:A *28:8 3.91164e-05
11 *27:31 *28:8 0.000372993
*RES
1 *251:Y *28:8 32.6943 
2 *28:8 *252:B1 23 
*END

*D_NET *29 0.00135718
*CONN
*I *253:B I *D sky130_fd_sc_hd__nand2_1
*I *287:A I *D sky130_fd_sc_hd__or2b_1
*I *252:Y O *D sky130_fd_sc_hd__o21ai_1
*CAP
1 *253:B 0.000181537
2 *287:A 2.18824e-05
3 *252:Y 0.000262583
4 *29:6 0.000466003
5 *253:B *287:B_N 8.48249e-05
6 *29:6 *61:10 9.79925e-05
7 *252:A1 *29:6 0.00010766
8 *253:A *253:B 1.33082e-05
9 *25:22 *253:B 6.34357e-05
10 *27:31 *29:6 5.79559e-05
*RES
1 *252:Y *29:6 28.3857 
2 *29:6 *287:A 23.4971 
3 *29:6 *253:B 26.9979 
*END

*D_NET *30 0.00267367
*CONN
*I *254:B I *D sky130_fd_sc_hd__and2_1
*I *288:A2 I *D sky130_fd_sc_hd__o211a_1
*I *253:Y O *D sky130_fd_sc_hd__nand2_1
*CAP
1 *254:B 0.000183425
2 *288:A2 0.000498506
3 *253:Y 0.000251323
4 *30:12 0.000681931
5 *30:10 0.000251323
6 *254:B *58:16 0.000248992
7 *288:A2 *288:A1 2.71891e-05
8 *288:A2 *288:B1 1.9054e-05
9 *288:A2 *289:C1 5.79559e-05
10 *288:A2 *45:35 8.06804e-06
11 *288:A2 *49:20 1.9054e-05
12 *288:A2 *58:16 0.000148379
13 *288:A2 *58:25 6.84192e-05
14 *30:10 *39:14 3.95107e-05
15 *30:10 *63:10 1.85903e-05
16 *24:16 *254:B 3.26241e-05
17 *25:8 *30:10 4.65096e-05
18 *25:22 *288:A2 1.71761e-05
19 *25:22 *30:10 5.56356e-05
*RES
1 *253:Y *30:10 41.8321 
2 *30:10 *30:12 15 
3 *30:12 *288:A2 30.5607 
4 *30:12 *254:B 27.4329 
*END

*D_NET *31 0.00193446
*CONN
*I *255:B I *D sky130_fd_sc_hd__nand2_1
*I *292:A2 I *D sky130_fd_sc_hd__o21a_1
*I *291:B I *D sky130_fd_sc_hd__nand2_1
*I *254:X O *D sky130_fd_sc_hd__and2_1
*CAP
1 *255:B 0.000136418
2 *292:A2 0
3 *291:B 0.000317746
4 *254:X 0.000421618
5 *31:21 0.000136418
6 *31:8 0.000739363
7 *255:B *292:A1 5.58003e-05
8 *255:B *32:12 3.10515e-05
9 *291:B *291:A 1.9054e-05
10 *23:41 *291:B 7.23558e-05
11 *23:41 *31:8 4.6318e-06
*RES
1 *254:X *31:8 45.54 
2 *31:8 *291:B 43.9243 
3 *31:8 *31:21 15 
4 *31:21 *292:A2 23 
5 *31:21 *255:B 26.335 
*END

*D_NET *32 0.00204333
*CONN
*I *265:A3 I *D sky130_fd_sc_hd__a32o_1
*I *255:Y O *D sky130_fd_sc_hd__nand2_1
*CAP
1 *265:A3 0
2 *255:Y 0.000531803
3 *32:12 0.000531803
4 *32:12 *263:A1 0.000111296
5 *32:12 *265:B1 2.35884e-05
6 *32:12 *292:A1 0.000441938
7 *32:12 *292:B1 7.17414e-05
8 *32:12 *33:36 0.000128497
9 *32:12 *40:8 0.000105625
10 *255:B *32:12 3.10515e-05
11 *19:16 *32:12 2.77095e-05
12 *22:33 *32:12 3.82813e-05
*RES
1 *255:Y *32:12 34.7657 
2 *32:12 *265:A3 23 
*END

*D_NET *33 0.00358559
*CONN
*I *292:A1 I *D sky130_fd_sc_hd__o21a_1
*I *293:A I *D sky130_fd_sc_hd__or2_1
*I *263:A1 I *D sky130_fd_sc_hd__a21oi_1
*I *291:A I *D sky130_fd_sc_hd__nand2_1
*I *256:Y O *D sky130_fd_sc_hd__nand2_1
*CAP
1 *292:A1 8.82778e-05
2 *293:A 1.49679e-05
3 *263:A1 4.05797e-05
4 *291:A 0.000284544
5 *256:Y 0
6 *33:36 0.000144763
7 *33:25 0.000352111
8 *33:4 0.000554557
9 *263:A1 *263:A2 5.88665e-05
10 *263:A1 *292:B1 1.59071e-05
11 *291:A *298:A1 7.47143e-05
12 *291:A *298:A2 5.56279e-05
13 *291:A *298:B1 0.000188934
14 *291:A *82:18 3.80387e-05
15 *292:A1 *292:B1 0.000296695
16 *293:A *263:A2 5.47983e-06
17 *293:A *292:B1 1.12349e-05
18 *33:25 *68:10 0.000169147
19 *33:25 *70:8 8.71559e-05
20 *33:36 *263:A2 5.3304e-05
21 *33:36 *292:B1 1.59071e-05
22 *33:36 *39:14 2.31687e-05
23 *255:B *292:A1 5.58003e-05
24 *291:B *291:A 1.9054e-05
25 *19:16 *33:25 9.58618e-06
26 *23:28 *291:A 5.20427e-05
27 *23:28 *33:25 0.000193399
28 *32:12 *263:A1 0.000111296
29 *32:12 *292:A1 0.000441938
30 *32:12 *33:36 0.000128497
*RES
1 *256:Y *33:4 23 
2 *33:4 *291:A 29.38 
3 *33:4 *33:25 35.4893 
4 *33:25 *263:A1 24.595 
5 *33:25 *33:36 1.57429 
6 *33:36 *293:A 23.4971 
7 *33:36 *292:A1 27.9093 
*END

*D_NET *34 0.00379944
*CONN
*I *282:A I *D sky130_fd_sc_hd__or2_1
*I *283:A1 I *D sky130_fd_sc_hd__a21oi_1
*I *262:A1 I *D sky130_fd_sc_hd__a21o_1
*I *287:B_N I *D sky130_fd_sc_hd__or2b_1
*I *257:Y O *D sky130_fd_sc_hd__nand2_1
*CAP
1 *282:A 0.000144004
2 *283:A1 0.000218032
3 *262:A1 0.000134778
4 *287:B_N 0.00029618
5 *257:Y 9.2242e-05
6 *34:36 0.000459448
7 *34:21 0.000426966
8 *34:8 0.000583198
9 *262:A1 *262:B1 6.67968e-05
10 *262:A1 *37:24 5.79559e-05
11 *282:A *282:B 0.000100486
12 *282:A *56:8 3.2277e-05
13 *283:A1 *282:B 0.000228124
14 *283:A1 *37:31 2.40344e-05
15 *34:21 *38:10 6.35028e-05
16 *34:21 *63:10 0.000404455
17 *34:36 *63:10 0.000126363
18 *253:B *287:B_N 8.48249e-05
19 *24:16 *34:8 1.35999e-05
20 *25:8 *287:B_N 0.000151474
21 *25:8 *34:8 6.74232e-05
22 *25:22 *287:B_N 2.32787e-05
*RES
1 *257:Y *34:8 25.0714 
2 *34:8 *287:B_N 28.8829 
3 *34:8 *34:21 20.4271 
4 *34:21 *262:A1 40.5479 
5 *34:21 *34:36 16.9057 
6 *34:36 *283:A1 26.0036 
7 *34:36 *282:A 25.5479 
*END

*D_NET *35 0.00137438
*CONN
*I *276:A2 I *D sky130_fd_sc_hd__a21o_1
*I *260:A2 I *D sky130_fd_sc_hd__a21o_1
*I *277:A2 I *D sky130_fd_sc_hd__o21ba_1
*I *258:X O *D sky130_fd_sc_hd__or2b_1
*CAP
1 *276:A2 5.65961e-05
2 *260:A2 0.000134287
3 *277:A2 0.000152598
4 *258:X 8.22184e-05
5 *35:21 0.000190883
6 *35:8 0.000234816
7 *276:A2 *37:10 5.82853e-05
8 *277:A2 *260:B1 0.000137907
9 *277:A2 *277:B1_N 5.5792e-05
10 *277:A2 *72:6 3.26241e-05
11 *277:A2 *72:12 3.53602e-05
12 *35:8 *72:12 6.23469e-05
13 *26:6 *260:A2 1.92253e-05
14 *26:13 *260:A2 3.82559e-05
15 *26:13 *276:A2 2.19403e-05
16 *26:17 *277:A2 5.68297e-05
17 *26:19 *277:A2 4.41821e-06
*RES
1 *258:X *35:8 39.9057 
2 *35:8 *277:A2 41.5836 
3 *35:8 *35:21 15 
4 *35:21 *260:A2 25.5479 
5 *35:21 *276:A2 24.595 
*END

*D_NET *36 0.00223913
*CONN
*I *260:B1 I *D sky130_fd_sc_hd__a21o_1
*I *259:X O *D sky130_fd_sc_hd__and2b_1
*CAP
1 *260:B1 5.72884e-05
2 *259:X 0.000850423
3 *36:8 0.000907712
4 *260:B1 *72:12 0.000137907
5 *36:8 *277:B1_N 0.000143423
6 *36:8 *52:10 4.46957e-06
7 *277:A2 *260:B1 0.000137907
*RES
1 *259:X *36:8 48.6264 
2 *36:8 *260:B1 39.9057 
*END

*D_NET *37 0.0027665
*CONN
*I *283:A2 I *D sky130_fd_sc_hd__a21oi_1
*I *282:B I *D sky130_fd_sc_hd__or2_1
*I *262:A2 I *D sky130_fd_sc_hd__a21o_1
*I *260:X O *D sky130_fd_sc_hd__a21o_1
*CAP
1 *283:A2 0
2 *282:B 9.68006e-05
3 *262:A2 0
4 *260:X 0.00029005
5 *37:31 0.000127312
6 *37:24 0.000255536
7 *37:10 0.000576097
8 *282:B *290:A2 3.59255e-05
9 *282:B *56:8 0.000127426
10 *37:10 *290:A2 5.56279e-05
11 *37:24 *262:B1 0.000138314
12 *37:24 *72:6 1.59071e-05
13 *37:31 *290:A2 0.000100069
14 *262:A1 *37:24 5.79559e-05
15 *276:A1 *37:10 5.58003e-05
16 *276:A2 *37:10 5.82853e-05
17 *282:A *282:B 0.000100486
18 *283:A1 *282:B 0.000228124
19 *283:A1 *37:31 2.40344e-05
20 *21:65 *282:B 3.23857e-06
21 *21:65 *37:10 0.000363719
22 *26:13 *37:10 5.5792e-05
*RES
1 *260:X *37:10 29.9807 
2 *37:10 *37:24 35.0957 
3 *37:24 *262:A2 23 
4 *37:10 *37:31 1.09786 
5 *37:31 *282:B 26.9771 
6 *37:31 *283:A2 23 
*END

*D_NET *38 0.00165346
*CONN
*I *262:B1 I *D sky130_fd_sc_hd__a21o_1
*I *261:X O *D sky130_fd_sc_hd__and2b_1
*CAP
1 *262:B1 0.000129952
2 *261:X 0.000367907
3 *38:10 0.000497859
4 *262:B1 *72:6 0.000359781
5 *38:10 *261:B 2.93431e-05
6 *262:A1 *262:B1 6.67968e-05
7 *34:21 *38:10 6.35028e-05
8 *37:24 *262:B1 0.000138314
*RES
1 *261:X *38:10 43.3857 
2 *38:10 *262:B1 42.4536 
*END

*D_NET *39 0.00271822
*CONN
*I *293:B I *D sky130_fd_sc_hd__or2_1
*I *263:A2 I *D sky130_fd_sc_hd__a21oi_1
*I *262:X O *D sky130_fd_sc_hd__a21o_1
*CAP
1 *293:B 0
2 *263:A2 4.91849e-05
3 *262:X 4.3417e-05
4 *39:14 0.00100268
5 *39:8 0.000996909
6 *263:A2 *292:B1 5.57148e-05
7 *39:8 *72:6 5.56279e-05
8 *39:14 *292:B1 5.3304e-05
9 *39:14 *60:10 0.000109352
10 *39:14 *68:10 0.000107232
11 *263:A1 *263:A2 5.88665e-05
12 *293:A *263:A2 5.47983e-06
13 *19:22 *39:14 0
14 *25:22 *39:14 6.44674e-05
15 *30:10 *39:14 3.95107e-05
16 *33:36 *263:A2 5.3304e-05
17 *33:36 *39:14 2.31687e-05
*RES
1 *262:X *39:8 38.6214 
2 *39:8 *39:14 31.2607 
3 *39:14 *263:A2 24.595 
4 *39:14 *293:B 23 
*END

*D_NET *40 0.00162201
*CONN
*I *297:A1 I *D sky130_fd_sc_hd__a221o_1
*I *265:B1 I *D sky130_fd_sc_hd__a32o_1
*I *263:Y O *D sky130_fd_sc_hd__a21oi_1
*CAP
1 *297:A1 0
2 *265:B1 0.000207713
3 *263:Y 3.98065e-05
4 *40:29 0.000317983
5 *40:8 0.000565503
6 *265:B1 *292:B1 5.68926e-06
7 *265:B1 *49:12 6.2797e-06
8 *40:29 *297:B1 3.19833e-05
9 *40:29 *69:10 6.33771e-05
10 *40:29 *74:10 6.58415e-06
11 *19:16 *40:8 5.8072e-05
12 *19:16 *40:29 2.35118e-06
13 *22:21 *40:29 7.54677e-05
14 *22:33 *265:B1 2.87262e-05
15 *22:33 *40:8 5.52853e-06
16 *22:33 *40:29 7.77327e-05
17 *32:12 *265:B1 2.35884e-05
18 *32:12 *40:8 0.000105625
*RES
1 *263:Y *40:8 24.5898 
2 *40:8 *265:B1 26.392 
3 *40:8 *40:29 35.0336 
4 *40:29 *297:A1 23 
*END

*D_NET *41 0.00114332
*CONN
*I *265:B2 I *D sky130_fd_sc_hd__a32o_1
*I *264:X O *D sky130_fd_sc_hd__or2b_1
*CAP
1 *265:B2 4.24639e-05
2 *264:X 0.000241018
3 *41:10 0.000283482
4 *265:B2 *45:14 2.64616e-05
5 *41:10 *245:A 5.82853e-05
6 *41:10 *296:C 0.000347037
7 *41:10 *74:18 8.64543e-05
8 *41:10 *86:30 5.81185e-05
*RES
1 *264:X *41:10 43.8207 
2 *41:10 *265:B2 38.6214 
*END

*D_NET *42 0.00676614
*CONN
*I *268:A I *D sky130_fd_sc_hd__and3_1
*I *272:A I *D sky130_fd_sc_hd__or3_1
*I *285:A I *D sky130_fd_sc_hd__and3_1
*I *273:A1 I *D sky130_fd_sc_hd__o21ai_1
*I *269:A I *D sky130_fd_sc_hd__and2_1
*I *279:A1 I *D sky130_fd_sc_hd__o21ai_1
*I *266:Y O *D sky130_fd_sc_hd__inv_2
*CAP
1 *268:A 0
2 *272:A 0
3 *285:A 0
4 *273:A1 1.76074e-05
5 *269:A 0
6 *279:A1 0
7 *266:Y 0
8 *42:71 0.000876429
9 *42:58 0.000173479
10 *42:52 0.00112483
11 *42:28 0.00035903
12 *42:18 0.000481193
13 *42:14 0.00022066
14 *42:12 0.000472121
15 *42:4 0.000466157
16 *273:A1 *269:B 3.23857e-06
17 *42:12 *315:A 0.000187109
18 *42:12 *76:14 0
19 *42:12 *87:39 0
20 *42:12 *87:56 7.69256e-06
21 *42:14 *48:6 0.000144878
22 *42:14 *73:29 4.94034e-05
23 *42:14 *87:39 0.000187343
24 *42:18 *269:B 1.12349e-05
25 *42:18 *73:20 3.22051e-05
26 *42:18 *73:29 6.96783e-05
27 *42:28 *279:A2 1.05235e-05
28 *42:28 *45:46 1.28557e-05
29 *42:28 *53:16 6.17437e-06
30 *42:28 *54:10 8.79053e-05
31 *42:28 *84:14 2.67002e-05
32 *42:28 *87:18 0.000138398
33 *42:52 *315:A 8.55549e-05
34 *42:58 *73:51 8.93603e-05
35 *42:58 *74:28 0.000190435
36 *42:58 *74:43 5.71002e-06
37 *42:58 *76:14 5.03407e-05
38 *42:58 *77:10 3.46013e-05
39 *42:71 *315:A 4.08664e-05
40 *42:71 *74:43 0.000254606
41 *27:12 *42:71 0.000825466
42 *27:31 *42:71 2.23467e-05
*RES
1 *266:Y *42:4 23 
2 *42:4 *42:12 36.4214 
3 *42:12 *42:14 3.00357 
4 *42:14 *42:18 2.54786 
5 *42:18 *42:28 37.0221 
6 *42:28 *279:A1 23 
7 *42:18 *269:A 23 
8 *42:14 *273:A1 23.4971 
9 *42:12 *285:A 23 
10 *42:4 *42:52 1.09786 
11 *42:52 *42:58 34.0186 
12 *42:58 *272:A 23 
13 *42:52 *42:71 49.2229 
14 *42:71 *268:A 23 
*END

*D_NET *43 0.00171399
*CONN
*I *268:C I *D sky130_fd_sc_hd__and3_1
*I *270:B I *D sky130_fd_sc_hd__nor2_1
*I *267:X O *D sky130_fd_sc_hd__a22o_1
*CAP
1 *268:C 0
2 *270:B 0
3 *267:X 0
4 *43:33 6.2827e-05
5 *43:20 0.000545384
6 *43:4 0.000608211
7 *43:20 *271:A2 3.34276e-06
8 *43:20 *271:B2 6.49264e-05
9 *43:20 *44:10 2.40002e-06
10 *43:20 *72:37 9.41704e-05
11 *43:20 *73:91 4.74284e-05
12 *43:20 *76:8 9.08709e-06
13 *43:20 *83:37 9.71389e-05
14 *43:33 *73:91 8.57485e-05
15 *43:33 *74:43 8.36198e-05
16 *43:33 *83:29 9.70259e-06
*RES
1 *267:X *43:4 23 
2 *43:4 *43:20 38.4514 
3 *43:20 *270:B 23 
4 *43:4 *43:33 31.4293 
5 *43:33 *268:C 23 
*END

*D_NET *44 0.000695027
*CONN
*I *271:B1 I *D sky130_fd_sc_hd__o22a_1
*I *268:X O *D sky130_fd_sc_hd__and3_1
*CAP
1 *271:B1 0
2 *268:X 0.000238258
3 *44:10 0.000238258
4 *44:10 *271:A2 0.000102971
5 *44:10 *76:8 9.79925e-05
6 *44:10 *76:14 1.51481e-05
7 *43:20 *44:10 2.40002e-06
*RES
1 *268:X *44:10 41.7286 
2 *44:10 *271:B1 38 
*END

*D_NET *45 0.00944411
*CONN
*I *270:A I *D sky130_fd_sc_hd__nor2_1
*I *280:B1 I *D sky130_fd_sc_hd__o221a_1
*I *289:A2 I *D sky130_fd_sc_hd__a221o_1
*I *296:C I *D sky130_fd_sc_hd__and3_1
*I *269:X O *D sky130_fd_sc_hd__and2_1
*CAP
1 *270:A 0
2 *280:B1 7.38307e-05
3 *289:A2 0
4 *296:C 0.000275568
5 *269:X 0
6 *45:69 0.000662643
7 *45:46 0.00133815
8 *45:35 0.000831141
9 *45:14 0.00184994
10 *45:6 0.00134491
11 *280:B1 *278:A2 1.42144e-05
12 *280:B1 *280:B2 8.58804e-06
13 *296:C *245:A 2.13713e-05
14 *45:14 *49:12 0.000493519
15 *45:14 *74:18 0.000394042
16 *45:14 *74:28 5.14826e-05
17 *45:14 *84:14 0
18 *45:35 *288:A1 5.3304e-05
19 *45:35 *288:B1 2.50118e-05
20 *45:35 *288:C1 5.5792e-05
21 *45:35 *47:30 0.000170807
22 *45:35 *49:20 0.000151477
23 *45:35 *49:30 2.97185e-05
24 *45:35 *58:16 7.54797e-05
25 *45:35 *58:25 0.000354862
26 *45:35 *61:10 1.00203e-05
27 *45:35 *67:10 2.04854e-05
28 *45:46 *84:14 0
29 *45:46 *87:39 5.94873e-05
30 *45:69 *84:27 0.000405448
31 *265:A1 *296:C 8.61037e-06
32 *265:B2 *45:14 2.64616e-05
33 *288:A2 *45:35 8.06804e-06
34 *294:B *296:C 0
35 *294:B *45:35 0
36 *19:16 *296:C 0
37 *21:10 *45:14 0.000269781
38 *41:10 *296:C 0.000347037
39 *42:28 *45:46 1.28557e-05
*RES
1 *269:X *45:6 38 
2 *45:6 *45:14 47.4207 
3 *45:14 *296:C 43.655 
4 *45:14 *45:35 31.908 
5 *45:35 *289:A2 23 
6 *45:6 *45:46 10.3675 
7 *45:46 *280:B1 39.4604 
8 *45:46 *45:69 28.3296 
9 *45:69 *270:A 23 
*END

*D_NET *46 0.000426705
*CONN
*I *271:B2 I *D sky130_fd_sc_hd__o22a_1
*I *270:Y O *D sky130_fd_sc_hd__nor2_1
*CAP
1 *271:B2 0.000109177
2 *270:Y 0.000109177
3 *271:B2 *76:8 0.000143423
4 *43:20 *271:B2 6.49264e-05
*RES
1 *270:Y *271:B2 49.0243 
*END

*D_NET *47 0.00198573
*CONN
*I *286:A2 I *D sky130_fd_sc_hd__o21bai_1
*I *294:A_N I *D sky130_fd_sc_hd__and2b_1
*I *274:B I *D sky130_fd_sc_hd__and3_1
*I *272:X O *D sky130_fd_sc_hd__or3_1
*CAP
1 *286:A2 0
2 *294:A_N 0
3 *274:B 0
4 *272:X 0.000126238
5 *47:30 0.000264788
6 *47:15 0.000430055
7 *47:6 0.000291505
8 *47:6 *59:12 0.000106445
9 *47:15 *59:12 9.63725e-05
10 *47:30 *295:A 0.000139352
11 *47:30 *59:12 0.000228838
12 *47:30 *59:18 2.23884e-05
13 *47:30 *67:10 5.3304e-05
14 *294:B *47:30 5.56356e-05
15 *45:35 *47:30 0.000170807
*RES
1 *272:X *47:6 25.0507 
2 *47:6 *274:B 23 
3 *47:6 *47:15 2.9 
4 *47:15 *294:A_N 23 
5 *47:15 *47:30 37.0636 
6 *47:30 *286:A2 23 
*END

*D_NET *48 0.00154328
*CONN
*I *274:C I *D sky130_fd_sc_hd__and3_1
*I *273:Y O *D sky130_fd_sc_hd__o21ai_1
*CAP
1 *274:C 0
2 *273:Y 0.000541722
3 *48:6 0.000541722
4 *48:6 *272:C 4.05745e-05
5 *48:6 *285:C 2.06874e-05
6 *48:6 *59:12 9.13289e-05
7 *48:6 *87:39 4.44272e-05
8 *48:6 *87:50 1.01436e-05
9 *21:29 *48:6 0.000107796
10 *42:14 *48:6 0.000144878
*RES
1 *273:Y *48:6 30.8507 
2 *48:6 *274:C 23 
*END

*D_NET *49 0.00564666
*CONN
*I *292:B1 I *D sky130_fd_sc_hd__o21a_1