*SPEF "ieee 1481-1999"
*DESIGN "alu"
*DATE "11:11:11 Fri 11 11, 1111"
*VENDOR "OpenRCX"
*PROGRAM "Parallel Extraction"
*VERSION "1.0"
*DESIGN_FLOW "NAME_SCOPE LOCAL" "PIN_CAP NONE"
*DIVIDER /
*DELIMITER :
*BUS_DELIMITER []
*T_UNIT 1 NS
*C_UNIT 1 PF
*R_UNIT 1 OHM
*L_UNIT 1 HENRY

*NAME_MAP
*3 a[0]
*4 a[1]
*5 a[2]
*6 a[3]
*7 b[0]
*8 b[1]
*9 b[2]
*10 b[3]
*11 carry
*12 out[0]
*13 out[1]
*14 out[2]
*15 out[3]
*16 sel[0]
*17 sel[1]
*18 sel[2]
*19 _000_
*20 _001_
*21 _002_
*22 _003_
*23 _004_
*24 _005_
*25 _006_
*26 _007_
*27 _008_
*28 _009_
*29 _010_
*30 _011_
*31 _012_
*32 _013_
*33 _014_
*34 _015_
*35 _016_
*36 _017_
*37 _018_
*38 _019_
*39 _020_
*40 _021_
*41 _022_
*42 _023_
*43 _024_
*44 _025_
*45 _026_
*46 _027_
*47 _028_
*48 _029_
*49 _030_
*50 _031_
*51 _032_
*52 _033_
*53 _034_
*54 _035_
*55 _036_
*56 _037_
*57 _038_
*58 _039_
*59 _040_
*60 _041_
*61 _042_
*62 _043_
*63 _044_
*64 _045_
*65 _046_
*66 _047_
*67 _048_
*68 _049_
*69 _050_
*70 _051_
*71 _052_
*72 net1
*73 net10
*74 net11
*75 net12
*76 net13
*77 net14
*78 net15
*79 net16
*80 net2
*81 net3
*82 net4
*83 net5
*84 net6
*85 net7
*86 net8
*87 net9
*88 FILLER_0_0_15
*89 FILLER_0_0_20
*90 FILLER_0_0_29
*91 FILLER_0_0_41
*92 FILLER_0_0_49
*93 FILLER_0_0_55
*94 FILLER_0_0_57
*95 FILLER_0_0_69
*96 FILLER_0_0_7
*97 FILLER_0_0_83
*98 FILLER_0_10_16
*99 FILLER_0_10_29
*100 FILLER_0_10_37
*101 FILLER_0_10_52
*102 FILLER_0_10_56
*103 FILLER_0_10_72
*104 FILLER_0_11_3
*105 FILLER_0_11_30
*106 FILLER_0_11_34
*107 FILLER_0_11_38
*108 FILLER_0_11_45
*109 FILLER_0_11_53
*110 FILLER_0_11_57
*111 FILLER_0_11_69
*112 FILLER_0_11_81
*113 FILLER_0_12_13
*114 FILLER_0_12_29
*115 FILLER_0_12_37
*116 FILLER_0_12_43
*117 FILLER_0_12_57
*118 FILLER_0_12_69
*119 FILLER_0_12_81
*120 FILLER_0_13_11
*121 FILLER_0_13_23
*122 FILLER_0_13_27
*123 FILLER_0_13_29
*124 FILLER_0_13_37
*125 FILLER_0_13_41
*126 FILLER_0_13_53
*127 FILLER_0_13_57
*128 FILLER_0_13_65
*129 FILLER_0_13_72
*130 FILLER_0_1_21
*131 FILLER_0_1_52
*132 FILLER_0_1_57
*133 FILLER_0_1_64
*134 FILLER_0_1_69
*135 FILLER_0_1_81
*136 FILLER_0_1_9
*137 FILLER_0_2_15
*138 FILLER_0_2_27
*139 FILLER_0_2_29
*140 FILLER_0_2_3
*141 FILLER_0_2_41
*142 FILLER_0_2_57
*143 FILLER_0_2_69
*144 FILLER_0_3_15
*145 FILLER_0_3_28
*146 FILLER_0_3_3
*147 FILLER_0_3_40
*148 FILLER_0_3_62
*149 FILLER_0_3_73
*150 FILLER_0_3_81
*151 FILLER_0_4_16
*152 FILLER_0_4_3
*153 FILLER_0_4_34
*154 FILLER_0_4_46
*155 FILLER_0_4_58
*156 FILLER_0_4_70
*157 FILLER_0_4_82
*158 FILLER_0_5_24
*159 FILLER_0_5_36
*160 FILLER_0_5_46
*161 FILLER_0_5_54
*162 FILLER_0_5_57
*163 FILLER_0_5_69
*164 FILLER_0_5_81
*165 FILLER_0_5_9
*166 FILLER_0_6_10
*167 FILLER_0_6_22
*168 FILLER_0_6_29
*169 FILLER_0_6_3
*170 FILLER_0_6_41
*171 FILLER_0_6_45
*172 FILLER_0_6_62
*173 FILLER_0_6_73
*174 FILLER_0_6_82
*175 FILLER_0_7_22
*176 FILLER_0_7_3
*177 FILLER_0_7_43
*178 FILLER_0_7_55
*179 FILLER_0_7_60
*180 FILLER_0_7_71
*181 FILLER_0_7_79
*182 FILLER_0_7_83
*183 FILLER_0_8_15
*184 FILLER_0_8_27
*185 FILLER_0_8_29
*186 FILLER_0_8_3
*187 FILLER_0_8_41
*188 FILLER_0_8_53
*189 FILLER_0_8_65
*190 FILLER_0_8_73
*191 FILLER_0_8_80
*192 FILLER_0_9_15
*193 FILLER_0_9_22
*194 FILLER_0_9_3
*195 FILLER_0_9_34
*196 FILLER_0_9_46
*197 FILLER_0_9_54
*198 FILLER_0_9_63
*199 FILLER_0_9_75
*200 PHY_0
*201 PHY_1
*202 PHY_10
*203 PHY_11
*204 PHY_12
*205 PHY_13
*206 PHY_14
*207 PHY_15
*208 PHY_16
*209 PHY_17
*210 PHY_18
*211 PHY_19
*212 PHY_2
*213 PHY_20
*214 PHY_21
*215 PHY_22
*216 PHY_23
*217 PHY_24
*218 PHY_25
*219 PHY_26
*220 PHY_27
*221 PHY_3
*222 PHY_4
*223 PHY_5
*224 PHY_6
*225 PHY_7
*226 PHY_8
*227 PHY_9
*228 TAP_28
*229 TAP_29
*230 TAP_30
*231 TAP_31
*232 TAP_32
*233 TAP_33
*234 TAP_34
*235 TAP_35
*236 TAP_36
*237 TAP_37
*238 TAP_38
*239 TAP_39
*240 TAP_40
*241 TAP_41
*242 TAP_42
*243 TAP_43
*244 _053_
*245 _054_
*246 _055_
*247 _056_
*248 _057_
*249 _058_
*250 _059_
*251 _060_
*252 _061_
*253 _062_
*254 _063_
*255 _064_
*256 _065_
*257 _066_
*258 _067_
*259 _068_
*260 _069_
*261 _070_
*262 _071_
*263 _072_
*264 _073_
*265 _074_
*266 _075_
*267 _076_
*268 _077_
*269 _078_
*270 _079_
*271 _080_
*272 _081_
*273 _082_
*274 _083_
*275 _084_
*276 _085_
*277 _086_
*278 _087_
*279 _088_
*280 _089_
*281 _090_
*282 _091_
*283 _092_
*284 _093_
*285 _094_
*286 _095_
*287 _096_
*288 _097_
*289 _098_
*290 _099_
*291 _100_
*292 _101_
*293 _102_
*294 _103_
*295 _104_
*296 _105_
*297 _106_
*298 _107_
*299 _108_
*300 _109_
*301 _110_
*302 input1
*303 input10
*304 input11
*305 input2
*306 input3
*307 input4
*308 input5
*309 input6
*310 input7
*311 input8
*312 input9
*313 output12
*314 output13
*315 output14
*316 output15
*317 output16

*PORTS
a[0] I
a[1] I
a[2] I
a[3] I
b[0] I
b[1] I
b[2] I
b[3] I
carry O
out[0] O
out[1] O
out[2] O
out[3] O
sel[0] I
sel[1] I
sel[2] I

*D_NET *3 0.000695567
*CONN
*P a[0] I
*I *302:A I *D sky130_fd_sc_hd__buf_1
*CAP
1 a[0] 0.000347784
2 *302:A 0.000347784
*RES
1 a[0] *302:A 8.3337 
*END

*D_NET *4 0.0015424
*CONN
*P a[1] I
*I *305:A I *D sky130_fd_sc_hd__clkbuf_2
*CAP
1 a[1] 0.000771202
2 *305:A 0.000771202
3 *305:A *303:A 0
*RES
1 a[1] *305:A 11.7614 
*END

*D_NET *5 0.00103499
*CONN
*P a[2] I
*I *306:A I *D sky130_fd_sc_hd__buf_1
*CAP
1 a[2] 0.00046671
2 *306:A 0.00046671
3 *306:A out[2] 5.06989e-05
4 *306:A *316:A 5.08762e-05
*RES
1 a[2] *306:A 8.3735 
*END

*D_NET *6 0.00143365
*CONN
*P a[3] I
*I *307:A I *D sky130_fd_sc_hd__buf_1
*CAP
1 a[3] 0.000703363
2 *307:A 0.000703363
3 *307:A *310:A 0
4 *307:A *85:10 2.69272e-05
*RES
1 a[3] *307:A 13.5802 
*END

*D_NET *7 0.00101455
*CONN
*P b[0] I
*I *308:A I *D sky130_fd_sc_hd__buf_1
*CAP
1 b[0] 0.000507276
2 *308:A 0.000507276
*RES
1 b[0] *308:A 12.495 
*END

*D_NET *8 0.00137767
*CONN
*P b[1] I
*I *309:A I *D sky130_fd_sc_hd__clkbuf_2
*CAP
1 b[1] 0.000688834
2 *309:A 0.000688834
3 *309:A out[0] 0
*RES
1 b[1] *309:A 15.27 
*END

*D_NET *9 0.000803359
*CONN
*P b[2] I
*I *310:A I *D sky130_fd_sc_hd__buf_1
*CAP
1 b[2] 0.00040168
2 *310:A 0.00040168
3 *307:A *310:A 0
*RES
1 b[2] *310:A 10.35 
*END

*D_NET *10 0.000871651
*CONN
*P b[3] I
*I *311:A I *D sky130_fd_sc_hd__buf_1
*CAP
1 b[3] 0.000435826
2 *311:A 0.000435826
*RES
1 b[3] *311:A 11.355 
*END

*D_NET *11 0.00120162
*CONN
*P carry O
*I *313:X O *D sky130_fd_sc_hd__clkbuf_4
*CAP
1 carry 0.000600809
2 *313:X 0.000600809
*RES
1 *313:X carry 13.965 
*END

*D_NET *12 0.000552643
*CONN
*P out[0] O
*I *314:X O *D sky130_fd_sc_hd__clkbuf_4
*CAP
1 out[0] 0.000276321
2 *314:X 0.000276321
3 *309:A out[0] 0
*RES
1 *314:X out[0] 6.73043 
*END

*D_NET *13 0.000546238
*CONN
*P out[1] O
*I *315:X O *D sky130_fd_sc_hd__clkbuf_4
*CAP
1 out[1] 0.000273119
2 *315:X 0.000273119
3 out[1] *73:20 0
*RES
1 *315:X out[1] 7.15043 
*END

*D_NET *14 0.00137492
*CONN
*P out[2] O
*I *316:X O *D sky130_fd_sc_hd__clkbuf_4
*CAP
1 out[2] 0.00066211
2 *316:X 0.00066211
3 *306:A out[2] 5.06989e-05
*RES
1 *316:X out[2] 15.24 
*END

*D_NET *15 0.000656106
*CONN
*P out[3] O
*I *317:X O *D sky130_fd_sc_hd__clkbuf_4
*CAP
1 out[3] 0.000328053
2 *317:X 0.000328053
*RES
1 *317:X out[3] 9.39 
*END

*D_NET *16 0.000446709
*CONN
*P sel[0] I
*I *312:A I *D sky130_fd_sc_hd__dlymetal6s2s_1
*CAP
1 sel[0] 0.000223355
2 *312:A 0.000223355
*RES
1 sel[0] *312:A 6.38543 
*END

*D_NET *17 0.0010457
*CONN
*P sel[1] I
*I *303:A I *D sky130_fd_sc_hd__clkbuf_2
*CAP
1 sel[1] 0.000521523
2 *303:A 0.000521523
3 *303:A *73:10 2.65814e-06
4 *305:A *303:A 0
*RES
1 sel[1] *303:A 12.48 
*END

*D_NET *18 0.000473143
*CONN
*P sel[2] I
*I *304:A I *D sky130_fd_sc_hd__buf_1
*CAP
1 sel[2] 0.000236572
2 *304:A 0.000236572
*RES
1 sel[2] *304:A 6.4437 
*END

*D_NET *19 0.00382116
*CONN
*I *301:D I *D sky130_fd_sc_hd__dlxtn_1
*I *265:X O *D sky130_fd_sc_hd__a32o_1
*CAP
1 *301:D 0.00110722
2 *265:X 0.00110722
3 *301:D *263:B1 7.36562e-05
4 *301:D *265:A1 0.000146048
5 *301:D *265:A3 2.49873e-05
6 *301:D *277:B1_N 7.1624e-05
7 *301:D *283:B1 2.14921e-05
8 *301:D *286:A1 0.000175721
9 *301:D *296:C 0
10 *301:D *297:A1 2.69443e-06
11 *301:D *297:B1 0
12 *301:D *21:48 0.00103048
13 *301:D *33:25 1.11086e-05
14 *301:D *39:14 0
15 *301:D *40:8 4.89144e-05
*RES
1 *265:X *301:D 29.22 
*END

*D_NET *20 0.000197067
*CONN
*I *301:GATE_N I *D sky130_fd_sc_hd__dlxtn_1
*I *300:X O *D sky130_fd_sc_hd__clkbuf_1
*CAP
1 *301:GATE_N 9.85335e-05
2 *300:X 9.85335e-05
*RES
1 *300:X *301:GATE_N 4.7 
*END

*D_NET *21 0.00622894
*CONN
*I *263:B1 I *D sky130_fd_sc_hd__a21oi_1
*I *283:B1 I *D sky130_fd_sc_hd__a21oi_1
*I *276:B1 I *D sky130_fd_sc_hd__a21o_1
*I *265:A1 I *D sky130_fd_sc_hd__a32o_1
*I *274:A I *D sky130_fd_sc_hd__and3_1
*I *244:X O *D sky130_fd_sc_hd__or3b_2
*CAP
1 *263:B1 0.000148532
2 *283:B1 0.000239336
3 *276:B1 0
4 *265:A1 0.000156867
5 *274:A 0
6 *244:X 0.00023826
7 *21:48 0.000649628
8 *21:31 0.000567159
9 *21:29 0.000564843
10 *21:12 0.000654572
11 *263:B1 *297:B1 6.1357e-05
12 *265:A1 *296:C 8.66107e-06
13 *265:A1 *49:20 6.02202e-05
14 *283:B1 *277:B1_N 9.12494e-06
15 *283:B1 *282:B 3.50152e-06
16 *283:B1 *37:10 0.000311328
17 *21:12 *244:B 0
18 *21:12 *45:14 0.000237249
19 *21:29 *274:C 9.18123e-05
20 *21:29 *295:A 8.66074e-05
21 *21:29 *297:B1 0.000160635
22 *21:29 *59:12 0.000327564
23 *21:48 *252:A1 2.41231e-05
24 *21:48 *288:C1 5.87002e-05
25 *21:48 *26:17 3.79514e-05
26 *21:48 *26:19 9.26306e-05
27 *21:48 *49:20 0.000166604
28 *301:D *263:B1 7.36562e-05
29 *301:D *265:A1 0.000146048
30 *301:D *283:B1 2.14921e-05
31 *301:D *21:48 0.00103048
*RES
1 *244:X *21:12 8.9 
2 *21:12 *274:A 1.6 
3 *21:12 *21:29 8.295 
4 *21:29 *21:31 2 
5 *21:31 *265:A1 6.39 
6 *21:31 *21:48 14.345 
7 *21:48 *276:B1 1.6 
8 *21:48 *283:B1 9.545 
9 *21:29 *263:B1 8.375 
*END

*D_NET *22 0.00110246
*CONN
*I *297:B2 I *D sky130_fd_sc_hd__a221o_1
*I *265:A2 I *D sky130_fd_sc_hd__a32o_1
*I *256:B I *D sky130_fd_sc_hd__nand2_1
*I *245:X O *D sky130_fd_sc_hd__or2_1
*CAP
1 *297:B2 1.00176e-05
2 *265:A2 0.000200083
3 *256:B 5.56599e-05
4 *245:X 0
5 *22:21 0.000278312
6 *22:4 0.000123872
7 *256:B *245:A 1.77945e-05
8 *256:B *256:A 2.08971e-05
9 *256:B *82:18 5.077e-05
10 *265:A2 *265:A3 3.15591e-05
11 *265:A2 *265:B1 2.74321e-05
12 *265:A2 *297:A1 7.3956e-05
13 *265:A2 *297:C1 9.12494e-06
14 *265:A2 *40:8 5.16687e-06
15 *265:A2 *74:18 3.52581e-05
16 *297:B2 *297:B1 1.77945e-05
17 *297:B2 *74:18 6.03947e-06
18 *22:21 *256:A 3.06667e-05
19 *22:21 *297:A1 6.42972e-05
20 *22:21 *297:C1 3.18965e-05
21 *22:21 *74:18 1.18624e-05
*RES
1 *245:X *22:4 1.6 
2 *22:4 *256:B 3.01 
3 *22:4 *22:21 5.575 
4 *22:21 *265:A2 9.26 
5 *22:21 *297:B2 2.06875 
*END

*D_NET *23 0.00491505
*CONN
*I *294:B I *D sky130_fd_sc_hd__and2b_1
*I *255:A I *D sky130_fd_sc_hd__nand2_1
*I *256:A I *D sky130_fd_sc_hd__nand2_1
*I *246:Y O *D sky130_fd_sc_hd__nand2_1
*CAP
1 *294:B 0.000323483
2 *255:A 0.000509155
3 *256:A 0.000151018
4 *246:Y 0.00022251
5 *23:18 0.00108114
6 *23:10 0.000966962
7 *255:A *291:B 6.93763e-05
8 *255:A *31:8 4.43871e-06
9 *255:A *74:18 0.000588981
10 *255:A *85:10 0
11 *256:A *291:A 4.27523e-05
12 *256:A *33:25 0.000160585
13 *256:A *82:18 2.86975e-05
14 *294:B *286:A2 4.77757e-05
15 *294:B *286:B1_N 1.7396e-05
16 *294:B *289:A2 0
17 *294:B *296:C 0
18 *23:10 *86:30 0.000161482
19 *23:18 *74:18 0.000487732
20 *256:B *256:A 2.08971e-05
21 *22:21 *256:A 3.06667e-05
*RES
1 *246:Y *23:10 6.975 
2 *23:10 *23:18 8.435 
3 *23:18 *256:A 8.81 
4 *23:18 *255:A 12.86 
5 *23:10 *294:B 8.235 
*END

*D_NET *24 0.00116136
*CONN
*I *254:A I *D sky130_fd_sc_hd__and2_1
*I *257:A I *D sky130_fd_sc_hd__nand2_1
*I *247:Y O *D sky130_fd_sc_hd__nand2_1
*CAP
1 *254:A 2.0132e-05
2 *257:A 0.000178056
3 *247:Y 0.000132971
4 *24:6 0.000331159
5 *257:A *254:B 2.88357e-05
6 *257:A *25:8 4.77769e-05
7 *257:A *34:8 1.14192e-05
8 *257:A *58:16 0.000122821
9 *24:6 *247:A 5.83121e-06
10 *24:6 *247:B 0.000123969
11 *24:6 *284:A 9.55262e-06
12 *24:6 *58:16 8.46767e-05
13 *24:6 *81:18 6.41593e-05
*RES
1 *247:Y *24:6 4.465 
2 *24:6 *257:A 9.08 
3 *24:6 *254:A 1.96 
*END

*D_NET *25 0.00153862
*CONN
*I *257:B I *D sky130_fd_sc_hd__nand2_1
*I *253:A I *D sky130_fd_sc_hd__nand2_1
*I *289:B2 I *D sky130_fd_sc_hd__a221o_1
*I *248:X O *D sky130_fd_sc_hd__or2_1
*CAP
1 *257:B 2.0132e-05
2 *253:A 1.3669e-05
3 *289:B2 0.000189641
4 *248:X 9.25753e-05
5 *25:8 0.00038004
6 *25:6 0.000289438
7 *253:A *253:B 1.24578e-05
8 *289:B2 *253:B 5.40592e-05
9 *289:B2 *287:B_N 2.26024e-05
10 *289:B2 *288:A2 1.53053e-05
11 *289:B2 *30:12 4.77757e-05
12 *289:B2 *39:14 6.36716e-05
13 *289:B2 *58:25 2.49381e-05
14 *25:6 *248:B 2.68526e-05
15 *25:8 *287:B_N 0.000135943
16 *25:8 *30:12 4.21518e-05
17 *25:8 *34:8 5.95938e-05
18 *257:A *25:8 4.77769e-05
*RES
1 *248:X *25:6 3.085 
2 *25:6 *25:8 3.9 
3 *25:8 *289:B2 9.335 
4 *25:8 *253:A 1.96 
5 *25:6 *257:B 1.96 
*END

*D_NET *26 0.00486209
*CONN
*I *276:A1 I *D sky130_fd_sc_hd__a21o_1
*I *277:A1 I *D sky130_fd_sc_hd__o21ba_1
*I *275:A I *D sky130_fd_sc_hd__xor2_1
*I *252:A1 I *D sky130_fd_sc_hd__o21ai_1
*I *260:A1 I *D sky130_fd_sc_hd__a21o_1
*I *249:Y O *D sky130_fd_sc_hd__xnor2_2
*CAP
1 *276:A1 2.67457e-05
2 *277:A1 1.19504e-05
3 *275:A 0.000598405
4 *252:A1 0.000153881
5 *260:A1 0
6 *249:Y 0.000855576
7 *26:19 0.000887189
8 *26:17 0.000202757
9 *26:13 0.000231209
10 *26:6 0.00100413
11 *252:A1 *281:C1 0
12 *252:A1 *29:6 9.51579e-05
13 *275:A *252:A2 8.23457e-05
14 *275:A *252:B1 3.54987e-05
15 *275:A *281:A1 2.56752e-06
16 *275:A *281:A2 8.52845e-05
17 *275:A *281:C1 0.000129325
18 *276:A1 *37:10 4.77807e-05
19 *277:A1 *277:B1_N 4.77769e-05
20 *277:A1 *72:12 2.69153e-05
21 *26:6 *260:A2 1.87038e-05
22 *26:13 *260:A2 3.75129e-05
23 *26:13 *276:A2 2.01934e-05
24 *26:13 *37:10 4.77769e-05
25 *26:17 *277:A2 5.4419e-05
26 *26:19 *277:A2 4.28112e-06
27 *21:48 *252:A1 2.41231e-05
28 *21:48 *26:17 3.79514e-05
29 *21:48 *26:19 9.26306e-05
*RES
1 *249:Y *26:6 10.675 
2 *26:6 *260:A1 1.6 
3 *26:6 *26:13 1.83 
4 *26:13 *26:17 3.38 
5 *26:17 *26:19 2.91 
6 *26:19 *252:A1 6.57 
7 *26:19 *275:A 15.745 
8 *26:17 *277:A1 4.05 
9 *26:13 *276:A1 2.05 
*END

*D_NET *27 0.00333209
*CONN
*I *252:A2 I *D sky130_fd_sc_hd__o21ai_1
*I *275:B I *D sky130_fd_sc_hd__xor2_1
*I *250:Y O *D sky130_fd_sc_hd__nand2_1
*CAP
1 *252:A2 0.000420408
2 *275:B 0
3 *250:Y 0.000256949
4 *27:12 0.000677358
5 *252:A2 *252:B1 0.000317998
6 *252:A2 *268:A 1.84465e-05
7 *252:A2 *281:A1 1.11086e-05
8 *252:A2 *29:6 4.89295e-05
9 *27:12 *268:A 0.000669608
10 *27:12 *271:A2 0.000158536
11 *27:12 *299:A 0.000670402
12 *275:A *252:A2 8.23457e-05
*RES
1 *250:Y *27:12 15.095 
2 *27:12 *275:B 1.6 
3 *27:12 *252:A2 11.12 
*END

*D_NET *28 0.0014091
*CONN
*I *252:B1 I *D sky130_fd_sc_hd__o21ai_1
*I *251:Y O *D sky130_fd_sc_hd__nand2_1
*CAP
1 *252:B1 0.000248141
2 *251:Y 0.000248141
3 *252:B1 *251:A 1.54665e-05
4 *252:B1 *281:A1 2.68464e-05
5 *252:B1 *281:A2 0.000122184
6 *252:B1 *281:C1 0.000119384
7 *252:B1 *315:A 0.000268716
8 *252:B1 *80:31 6.72833e-06
9 *252:A2 *252:B1 0.000317998
10 *275:A *252:B1 3.54987e-05
*RES
1 *251:Y *252:B1 10.22 
*END

*D_NET *29 0.00114046
*CONN
*I *253:B I *D sky130_fd_sc_hd__nand2_1
*I *287:A I *D sky130_fd_sc_hd__or2b_1
*I *252:Y O *D sky130_fd_sc_hd__o21ai_1
*CAP
1 *253:B 0.000147912
2 *287:A 2.0132e-05
3 *252:Y 0.000216713
4 *29:6 0.000384757
5 *253:B *287:B_N 7.62018e-05
6 *29:6 *288:C1 8.41384e-05
7 *252:A1 *29:6 9.51579e-05
8 *252:A2 *29:6 4.89295e-05
9 *253:A *253:B 1.24578e-05
10 *289:B2 *253:B 5.40592e-05
*RES
1 *252:Y *29:6 5.5 
2 *29:6 *287:A 1.96 
3 *29:6 *253:B 4.495 
*END

*D_NET *30 0.00218725
*CONN
*I *254:B I *D sky130_fd_sc_hd__and2_1
*I *288:A2 I *D sky130_fd_sc_hd__o211a_1
*I *253:Y O *D sky130_fd_sc_hd__nand2_1
*CAP
1 *254:B 0.000148961
2 *288:A2 0.000396242
3 *253:Y 0.000184699
4 *30:12 0.000729901
5 *254:B *58:16 0.000217487
6 *288:A2 *288:A1 2.47695e-05
7 *288:A2 *288:B1 1.77945e-05
8 *288:A2 *289:A2 8.73389e-06
9 *288:A2 *289:C1 4.89295e-05
10 *288:A2 *49:20 1.77945e-05
11 *288:A2 *58:16 0.000126354
12 *288:A2 *58:25 6.60524e-05
13 *30:12 *290:B1 2.12738e-05
14 *30:12 *39:14 4.41886e-05
15 *257:A *254:B 2.88357e-05
16 *289:B2 *288:A2 1.53053e-05
17 *289:B2 *30:12 4.77757e-05
18 *25:8 *30:12 4.21518e-05
*RES
1 *253:Y *30:12 8.375 
2 *30:12 *288:A2 7.075 
3 *30:12 *254:B 4.81 
*END

*D_NET *31 0.00159477
*CONN
*I *255:B I *D sky130_fd_sc_hd__nand2_1
*I *292:A2 I *D sky130_fd_sc_hd__o21a_1
*I *291:B I *D sky130_fd_sc_hd__nand2_1
*I *254:X O *D sky130_fd_sc_hd__and2_1
*CAP
1 *255:B 0.000113648
2 *292:A2 0
3 *291:B 0.0002481
4 *254:X 0.000351195
5 *31:21 0.000113648
6 *31:8 0.000599295
7 *255:B *265:A3 2.94911e-05
8 *255:B *292:A1 4.77807e-05
9 *291:B *291:A 1.77945e-05
10 *255:A *291:B 6.93763e-05
11 *255:A *31:8 4.43871e-06
*RES
1 *254:X *31:8 9.06 
2 *31:8 *291:B 7.89 
3 *31:8 *31:21 2 
4 *31:21 *292:A2 1.6 
5 *31:21 *255:B 4.015 
*END

*D_NET *32 0.00168039
*CONN
*I *265:A3 I *D sky130_fd_sc_hd__a32o_1
*I *255:Y O *D sky130_fd_sc_hd__nand2_1
*CAP
1 *265:A3 0.00041781
2 *255:Y 0.00041781
3 *265:A3 *263:A1 9.4424e-05
4 *265:A3 *265:B1 2.12924e-05
5 *265:A3 *292:A1 0.000373393
6 *265:A3 *292:B1 6.98404e-05
7 *265:A3 *33:36 0.000110147
8 *265:A3 *40:8 8.96384e-05
9 *255:B *265:A3 2.94911e-05
10 *265:A2 *265:A3 3.15591e-05
11 *301:D *265:A3 2.49873e-05
*RES
1 *255:Y *265:A3 11.72 
*END

*D_NET *33 0.00293834
*CONN
*I *292:A1 I *D sky130_fd_sc_hd__o21a_1
*I *293:A I *D sky130_fd_sc_hd__or2_1
*I *263:A1 I *D sky130_fd_sc_hd__a21oi_1
*I *291:A I *D sky130_fd_sc_hd__nand2_1
*I *256:Y O *D sky130_fd_sc_hd__nand2_1
*CAP
1 *292:A1 7.24263e-05
2 *293:A 1.33888e-05
3 *263:A1 3.148e-05
4 *291:A 0.000238417
5 *256:Y 0
6 *33:36 0.000113594
7 *33:25 0.000245687
8 *33:4 0.000424844
9 *263:A1 *263:A2 5.12734e-05
10 *263:A1 *292:B1 1.52352e-05
11 *291:A *298:A1 6.62162e-05
12 *291:A *298:A2 4.77719e-05
13 *291:A *298:B1 0.000160314
14 *291:A *82:18 3.6432e-05
15 *292:A1 *292:B1 0.00025175
16 *293:A *263:A2 5.12969e-06
17 *293:A *292:B1 9.13949e-06
18 *33:25 *297:B1 0.000142959
19 *33:25 *298:B1 7.14241e-05
20 *33:36 *263:A2 4.66108e-05
21 *33:36 *292:B1 1.52352e-05
22 *33:36 *39:14 2.10214e-05
23 *255:B *292:A1 4.77807e-05
24 *256:A *291:A 4.27523e-05
25 *256:A *33:25 0.000160585
26 *265:A3 *263:A1 9.4424e-05
27 *265:A3 *292:A1 0.000373393
28 *265:A3 *33:36 0.000110147
29 *291:B *291:A 1.77945e-05
30 *301:D *33:25 1.11086e-05
*RES
1 *256:Y *33:4 1.6 
2 *33:4 *291:A 6.22 
3 *33:4 *33:25 7.975 
4 *33:25 *263:A1 2.755 
5 *33:25 *33:36 1.14 
6 *33:36 *293:A 1.96 
7 *33:36 *292:A1 5.155 
*END

*D_NET *34 0.00311075
*CONN
*I *282:A I *D sky130_fd_sc_hd__or2_1
*I *283:A1 I *D sky130_fd_sc_hd__a21oi_1
*I *262:A1 I *D sky130_fd_sc_hd__a21o_1
*I *287:B_N I *D sky130_fd_sc_hd__or2b_1
*I *257:Y O *D sky130_fd_sc_hd__nand2_1
*CAP
1 *282:A 0.00012074
2 *283:A1 0.000169134
3 *262:A1 0.000108363
4 *287:B_N 0.000242817
5 *257:Y 7.89843e-05
6 *34:36 0.000358518
7 *34:21 0.000323157
8 *34:8 0.000467951
9 *262:A1 *262:A2 4.89295e-05
10 *262:A1 *262:B1 6.13115e-05
11 *282:A *282:B 8.53011e-05
12 *282:A *290:A1 3.0933e-05
13 *283:A1 *282:B 0.000195152
14 *283:A1 *37:31 2.16379e-05
15 *34:21 *262:B1 6.04287e-05
16 *34:21 *290:B1 0.000328164
17 *34:36 *290:B1 0.000103464
18 *253:B *287:B_N 7.62018e-05
19 *257:A *34:8 1.14192e-05
20 *289:B2 *287:B_N 2.26024e-05
21 *25:8 *287:B_N 0.000135943
22 *25:8 *34:8 5.95938e-05
*RES
1 *257:Y *34:8 3.1 
2 *34:8 *287:B_N 5.86 
3 *34:8 *34:21 5.93 
4 *34:21 *262:A1 5.445 
5 *34:21 *34:36 3.38 
6 *34:36 *283:A1 3.775 
7 *34:36 *282:A 3.445 
*END

*D_NET *35 0.00109632
*CONN
*I *276:A2 I *D sky130_fd_sc_hd__a21o_1
*I *260:A2 I *D sky130_fd_sc_hd__a21o_1
*I *277:A2 I *D sky130_fd_sc_hd__o21ba_1
*I *258:X O *D sky130_fd_sc_hd__or2b_1
*CAP
1 *276:A2 4.76539e-05
2 *260:A2 0.000103863
3 *277:A2 0.000100541
4 *258:X 6.32741e-05
5 *35:21 0.000151516
6 *35:8 0.000163815
7 *276:A2 *37:10 4.89395e-05
8 *277:A2 *260:B1 0.00011272
9 *277:A2 *277:B1_N 4.77769e-05
10 *277:A2 *72:12 6.24534e-05
11 *35:8 *72:12 5.86575e-05
12 *26:6 *260:A2 1.87038e-05
13 *26:13 *260:A2 3.75129e-05
14 *26:13 *276:A2 2.01934e-05
15 *26:17 *277:A2 5.4419e-05
16 *26:19 *277:A2 4.28112e-06
*RES
1 *258:X *35:8 4.98 
2 *35:8 *277:A2 6.195 
3 *35:8 *35:21 2 
4 *35:21 *260:A2 3.445 
5 *35:21 *276:A2 2.755 
*END

*D_NET *36 0.00183185
*CONN
*I *260:B1 I *D sky130_fd_sc_hd__a21o_1
*I *259:X O *D sky130_fd_sc_hd__and2b_1
*CAP
1 *260:B1 0.000739675
2 *259:X 0.000739675
3 *260:B1 *277:B1_N 0.000122189
4 *260:B1 *281:B1 4.87485e-06
5 *260:B1 *72:12 0.00011272
6 *277:A2 *260:B1 0.00011272
*RES
1 *259:X *260:B1 16.275 
*END

*D_NET *37 0.00230161
*CONN
*I *283:A2 I *D sky130_fd_sc_hd__a21oi_1
*I *282:B I *D sky130_fd_sc_hd__or2_1
*I *262:A2 I *D sky130_fd_sc_hd__a21o_1
*I *260:X O *D sky130_fd_sc_hd__a21o_1
*CAP
1 *283:A2 0
2 *282:B 7.39681e-05
3 *262:A2 0.000210849
4 *260:X 0.000232664
5 *37:31 9.6534e-05
6 *37:10 0.000466079
7 *262:A2 *262:B1 0.000117583
8 *262:A2 *72:12 1.52352e-05
9 *282:B *290:A1 0.000114153
10 *282:B *290:A2 3.11409e-05
11 *37:10 *290:A2 4.77719e-05
12 *37:31 *290:A2 8.52883e-05
13 *262:A1 *262:A2 4.89295e-05
14 *276:A1 *37:10 4.77807e-05
15 *276:A2 *37:10 4.89395e-05
16 *282:A *282:B 8.53011e-05
17 *283:A1 *282:B 0.000195152
18 *283:A1 *37:31 2.16379e-05
19 *283:B1 *282:B 3.50152e-06
20 *283:B1 *37:10 0.000311328
21 *26:13 *37:10 4.77769e-05
*RES
1 *260:X *37:10 6.655 
2 *37:10 *262:A2 9.29 
3 *37:10 *37:31 0.795 
4 *37:31 *282:B 4.48 
5 *37:31 *283:A2 1.6 
*END

*D_NET *38 0.00136507
*CONN
*I *262:B1 I *D sky130_fd_sc_hd__a21o_1
*I *261:X O *D sky130_fd_sc_hd__and2b_1
*CAP
1 *262:B1 0.000396037
2 *261:X 0.000396037
3 *262:B1 *261:B 2.68526e-05
4 *262:B1 *72:12 0.00030682
5 *262:A1 *262:B1 6.13115e-05
6 *262:A2 *262:B1 0.000117583
7 *34:21 *262:B1 6.04287e-05
*RES
1 *261:X *262:B1 14.325 
*END

*D_NET *39 0.002179
*CONN
*I *293:B I *D sky130_fd_sc_hd__or2_1
*I *263:A2 I *D sky130_fd_sc_hd__a21oi_1
*I *262:X O *D sky130_fd_sc_hd__a21o_1
*CAP
1 *293:B 0
2 *263:A2 3.56543e-05
3 *262:X 0.000775281
4 *39:14 0.000810936
5 *263:A2 *292:B1 5.15203e-05
6 *39:14 *289:B1 9.03138e-05
7 *39:14 *292:B1 4.66108e-05
8 *39:14 *297:B1 8.90199e-05
9 *39:14 *72:12 4.77719e-05
10 *263:A1 *263:A2 5.12734e-05
11 *289:B2 *39:14 6.36716e-05
12 *293:A *263:A2 5.12969e-06
13 *301:D *39:14 0
14 *30:12 *39:14 4.41886e-05
15 *33:36 *263:A2 4.66108e-05
16 *33:36 *39:14 2.10214e-05
*RES
1 *262:X *39:14 17.825 
2 *39:14 *263:A2 2.755 
3 *39:14 *293:B 1.6 
*END

*D_NET *40 0.00130931
*CONN
*I *297:A1 I *D sky130_fd_sc_hd__a221o_1
*I *265:B1 I *D sky130_fd_sc_hd__a32o_1
*I *263:Y O *D sky130_fd_sc_hd__a21oi_1
*CAP
1 *297:A1 0.000233024
2 *265:B1 0.00017084
3 *263:Y 3.37279e-05
4 *40:8 0.000437592
5 *265:B1 *292:B1 6.22746e-06
6 *265:B1 *49:12 6.99361e-06
7 *297:A1 *297:B1 2.90115e-05
8 *297:A1 *297:C1 5.13924e-05
9 *297:A1 *74:18 7.11235e-06
10 *265:A2 *265:B1 2.74321e-05
11 *265:A2 *297:A1 7.3956e-05
12 *265:A2 *40:8 5.16687e-06
13 *265:A3 *265:B1 2.12924e-05
14 *265:A3 *40:8 8.96384e-05
15 *301:D *297:A1 2.69443e-06
16 *301:D *40:8 4.89144e-05
17 *22:21 *297:A1 6.42972e-05
*RES
1 *263:Y *40:8 2.75125 
2 *40:8 *265:B1 4.05625 
3 *40:8 *297:A1 9.245 
*END

*D_NET *41 0.000906276
*CONN
*I *265:B2 I *D sky130_fd_sc_hd__a32o_1
*I *264:X O *D sky130_fd_sc_hd__or2b_1
*CAP
1 *265:B2 0.000209306
2 *264:X 0.000209306
3 *265:B2 *245:A 4.89395e-05
4 *265:B2 *296:C 0.000282541
5 *265:B2 *45:14 2.49909e-05
6 *265:B2 *74:18 8.22567e-05
7 *265:B2 *86:30 4.89362e-05
*RES
1 *264:X *265:B2 11.865 
*END

*D_NET *42 0.00547046
*CONN
*I *268:A I *D sky130_fd_sc_hd__and3_1
*I *272:A I *D sky130_fd_sc_hd__or3_1
*I *285:A I *D sky130_fd_sc_hd__and3_1
*I *273:A1 I *D sky130_fd_sc_hd__o21ai_1
*I *269:A I *D sky130_fd_sc_hd__and2_1
*I *279:A1 I *D sky130_fd_sc_hd__o21ai_1
*I *266:Y O *D sky130_fd_sc_hd__inv_2
*CAP
1 *268:A 0.000681831
2 *272:A 0.000123171
3 *285:A 0
4 *273:A1 1.57934e-05
5 *269:A 0
6 *279:A1 0.000266212
7 *266:Y 0
8 *42:52 0.00086383
9 *42:18 0.000366593
10 *42:14 0.000184723
11 *42:12 0.000383002
12 *42:4 0.000373281
13 *268:A *299:A 0.000235266
14 *268:A *315:A 3.57349e-05
15 *272:A *244:B 7.43778e-05
16 *272:A *299:A 6.54361e-06
17 *272:A *314:A 4.72912e-05
18 *272:A *315:A 2.85623e-05
19 *272:A *74:28 0.000156869
20 *273:A1 *269:B 3.50152e-06
21 *279:A1 *279:A2 1.1392e-05
22 *279:A1 *279:B1 5.83121e-06
23 *279:A1 *280:C1 7.5173e-05
24 *279:A1 *45:46 1.41633e-05
25 *279:A1 *84:14 2.72486e-05
26 *279:A1 *87:18 0.000130019
27 *42:12 *244:C_N 8.80293e-06
28 *42:12 *314:A 0
29 *42:12 *315:A 0.000159173
30 *42:12 *87:39 0
31 *42:14 *274:C 0.000123766
32 *42:14 *73:29 4.43625e-05
33 *42:14 *87:39 0.000161617
34 *42:18 *269:B 9.13949e-06
35 *42:18 *73:20 2.86975e-05
36 *42:18 *73:29 6.31732e-05
37 *42:52 *315:A 7.32625e-05
38 *252:A2 *268:A 1.84465e-05
39 *27:12 *268:A 0.000669608
*RES
1 *266:Y *42:4 1.6 
2 *42:4 *42:12 8.65 
3 *42:12 *42:14 2.175 
4 *42:14 *42:18 1.845 
5 *42:18 *279:A1 10.685 
6 *42:18 *269:A 1.6 
7 *42:14 *273:A1 1.96 
8 *42:12 *285:A 1.6 
9 *42:4 *42:52 0.795 
10 *42:52 *272:A 8.51 
11 *42:52 *268:A 19.52 
*END

*D_NET *43 0.00135586
*CONN
*I *268:C I *D sky130_fd_sc_hd__and3_1
*I *270:B I *D sky130_fd_sc_hd__nor2_1
*I *267:X O *D sky130_fd_sc_hd__a22o_1
*CAP
1 *268:C 4.03573e-05
2 *270:B 0.000423613
3 *267:X 0
4 *43:4 0.00046397
5 *268:C *268:B 7.03219e-05
6 *268:C *299:A 6.90254e-05
7 *268:C *83:29 9.16333e-06
8 *270:B *267:A1 7.94525e-05
9 *270:B *267:A2 8.23457e-05
10 *270:B *268:B 3.90157e-05
11 *270:B *271:A2 3.62258e-06
12 *270:B *271:B1 2.6348e-06
13 *270:B *271:B2 6.24973e-05
14 *270:B *314:A 9.83921e-06
*RES
1 *267:X *43:4 1.6 
2 *43:4 *270:B 11.72 
3 *43:4 *268:C 6.635 
*END

*D_NET *44 0.000573276
*CONN
*I *271:B1 I *D sky130_fd_sc_hd__o22a_1
*I *268:X O *D sky130_fd_sc_hd__and3_1
*CAP
1 *271:B1 0.000192682
2 *268:X 0.000192682
3 *271:B1 *271:A2 8.64599e-05
4 *271:B1 *314:A 9.88165e-05
5 *270:B *271:B1 2.6348e-06
*RES
1 *268:X *271:B1 9.9 
*END

*D_NET *45 0.00772377
*CONN
*I *270:A I *D sky130_fd_sc_hd__nor2_1
*I *280:B1 I *D sky130_fd_sc_hd__o221a_1
*I *289:A2 I *D sky130_fd_sc_hd__a221o_1
*I *296:C I *D sky130_fd_sc_hd__and3_1
*I *269:X O *D sky130_fd_sc_hd__and2_1
*CAP
1 *270:A 0.000527774
2 *280:B1 5.8539e-05
3 *289:A2 0.0006407
4 *296:C 0.00021687
5 *269:X 0
6 *45:46 0.00107091
7 *45:14 0.00146037
8 *45:6 0.0010874
9 *270:A *84:27 0.000328791
10 *280:B1 *278:A2 1.24295e-05
11 *280:B1 *280:B2 7.65266e-06
12 *289:A2 *281:A1 2.86767e-05
13 *289:A2 *286:A2 0.000138106
14 *289:A2 *288:A1 4.66108e-05
15 *289:A2 *288:B1 2.21074e-05
16 *289:A2 *288:C1 5.88127e-05
17 *289:A2 *295:B 2.30184e-05
18 *289:A2 *49:20 0.000161253
19 *289:A2 *58:16 6.34102e-05
20 *289:A2 *58:25 0.000301259
21 *296:C *245:A 1.79445e-05
22 *45:14 *49:12 0.000423502
23 *45:14 *74:18 0.000352726
24 *45:14 *74:28 4.71087e-05
25 *45:14 *84:14 0
26 *45:46 *84:14 0
27 *45:46 *87:39 5.14657e-05
28 *265:A1 *296:C 8.66107e-06
29 *265:B2 *296:C 0.000282541
30 *265:B2 *45:14 2.49909e-05
31 *279:A1 *45:46 1.41633e-05
32 *288:A2 *289:A2 8.73389e-06
33 *294:B *289:A2 0
34 *294:B *296:C 0
35 *301:D *296:C 0
36 *21:12 *45:14 0.000237249
*RES
1 *269:X *45:6 3.6 
2 *45:6 *45:14 16.615 
3 *45:14 *296:C 7.695 
4 *45:14 *289:A2 15.8438 
5 *45:6 *45:46 7.5075 
6 *45:46 *280:B1 4.6575 
7 *45:46 *270:A 13.2525 
*END

*D_NET *46 0.000365011
*CONN
*I *271:B2 I *D sky130_fd_sc_hd__o22a_1
*I *270:Y O *D sky130_fd_sc_hd__nor2_1
*CAP
1 *271:B2 9.01624e-05
2 *270:Y 9.01624e-05
3 *271:B2 *314:A 0.000122189
4 *270:B *271:B2 6.24973e-05
*RES
1 *270:Y *271:B2 5.39 
*END

*D_NET *47 0.00166613
*CONN
*I *286:A2 I *D sky130_fd_sc_hd__o21bai_1
*I *294:A_N I *D sky130_fd_sc_hd__and2b_1
*I *274:B I *D sky130_fd_sc_hd__and3_1
*I *272:X O *D sky130_fd_sc_hd__or3_1
*CAP
1 *286:A2 0.000205779
2 *294:A_N 0
3 *274:B 0
4 *272:X 0.000106078
5 *47:15 0.000347183
6 *47:6 0.000247481
7 *286:A2 *286:B1_N 2.47705e-05
8 *286:A2 *295:A 0.000122331
9 *286:A2 *295:B 4.66108e-05
10 *286:A2 *59:12 0.000196843
11 *47:6 *59:12 9.74276e-05
12 *47:15 *59:12 8.57421e-05
13 *289:A2 *286:A2 0.000138106
14 *294:B *286:A2 4.77757e-05
*RES
1 *272:X *47:6 3.085 
2 *47:6 *274:B 1.6 
3 *47:6 *47:15 2.1 
4 *47:15 *294:A_N 1.6 
5 *47:15 *286:A2 10.715 
*END

*D_NET *48 0.00128266
*CONN
*I *274:C I *D sky130_fd_sc_hd__and3_1
*I *273:Y O *D sky130_fd_sc_hd__o21ai_1
*CAP
1 *274:C 0.000437874
2 *273:Y 0.000437874
3 *274:C *272:C 3.83194e-05
4 *274:C *285:C 1.76156e-05
5 *274:C *59:12 8.50864e-05
6 *274:C *87:39 4.0727e-05
7 *274:C *87:50 9.57985e-06
8 *21:29 *274:C 9.18123e-05
9 *42:14 *274:C 0.000123766
*RES
1 *273:Y *274:C 8.885 
*END

*D_NET *49 0.00468876
*CONN
*I *292:B1 I *D sky130_fd_sc_hd__o21a_1
*I *288:B1 I *D sky130_fd_sc_hd__o211a_1
*I *281:A1 I *D sky130_fd_sc_hd__a211o_1
*I *274:X O *D sky130_fd_sc_hd__and3_1
*CAP
1 *292:B1 0.000489205
2 *288:B1 2.92355e-05
3 *281:A1 0.000461804
4 *274:X 0.000435477
5 *49:20 0.000675269
6 *49:12 0.00110891
7 *281:A1 *281:B1 8.33066e-06
8 *281:A1 *281:C1 2.68464e-05
9 *281:A1 *288:C1 2.21074e-05
10 *288:B1 *288:C1 2.05459e-05
11 *252:A2 *281:A1 1.11086e-05
12 *252:B1 *281:A1 2.68464e-05
13 *263:A1 *292:B1 1.52352e-05
14 *263:A2 *292:B1 5.15203e-05
15 *265:A1 *49:20 6.02202e-05
16 *265:A3 *292:B1 6.98404e-05
17 *265:B1 *292:B1 6.22746e-06
18 *265:B1 *49:12 6.99361e-06
19 *275:A *281:A1 2.56752e-06
20 *288:A2 *288:B1 1.77945e-05
21 *288:A2 *49:20 1.77945e-05
22 *289:A2 *281:A1 2.86767e-05
23 *289:A2 *288:B1 2.21074e-05
24 *289:A2 *49:20 0.000161253
25 *292:A1 *292:B1 0.00025175
26 *293:A *292:B1 9.13949e-06
27 *21:48 *49:20 0.000166604
28 *33:36 *292:B1 1.52352e-05
29 *39:14 *292:B1 4.66108e-05
30 *45:14 *49:12 0.000423502
*RES
1 *274:X *49:12 11.405 
2 *49:12 *49:20 9.31 
3 *49:20 *281:A1 12.605 
4 *49:20 *288:B1 2.41 
5 *49:12 *292:B1 8.98 
*END

*D_NET *50 0.000313865
*CONN
*I *281:A2 I *D sky130_fd_sc_hd__a211o_1
*I *275:X O *D sky130_fd_sc_hd__xor2_1
*CAP
1 *281:A2 4.61397e-05
2 *275:X 4.61397e-05
3 *281:A2 *281:C1 1.41165e-05
4 *252:B1 *281:A2 0.000122184
5 *275:A *281:A2 8.52845e-05
*RES
1 *275:X *281:A2 4.7 
*END

*D_NET *51 0.000972965
*CONN
*I *277:B1_N I *D sky130_fd_sc_hd__o21ba_1
*I *276:X O *D sky130_fd_sc_hd__a21o_1
*CAP
1 *277:B1_N 0.000290654
2 *276:X 0.000290654
3 *277:B1_N *72:12 9.31661e-05
4 *260:B1 *277:B1_N 0.000122189